*SPEF "ieee 1481-1999"
*DESIGN "tholin_avalonsemi_5401"
*DATE "11:11:11 Fri 11 11, 1111"
*VENDOR "OpenRCX"
*PROGRAM "Parallel Extraction"
*VERSION "1.0"
*DESIGN_FLOW "NAME_SCOPE LOCAL" "PIN_CAP NONE"
*DIVIDER /
*DELIMITER :
*BUS_DELIMITER []
*T_UNIT 1 NS
*C_UNIT 1 PF
*R_UNIT 1 OHM
*L_UNIT 1 HENRY

*NAME_MAP
*1 io_in[0]
*2 io_in[1]
*3 io_in[2]
*4 io_in[3]
*5 io_in[4]
*6 io_in[5]
*7 io_in[6]
*8 io_in[7]
*9 io_out[0]
*10 io_out[1]
*11 io_out[2]
*12 io_out[3]
*13 io_out[4]
*14 io_out[5]
*15 io_out[6]
*16 io_out[7]
*19 CIRCUIT_0\.GATES_10\.result
*20 CIRCUIT_0\.GATES_27\.result
*21 CIRCUIT_0\.GATES_28\.result
*22 CIRCUIT_0\.GATES_30\.result
*23 CIRCUIT_0\.GATES_33\.input2
*24 CIRCUIT_0\.GATES_35\.result
*25 CIRCUIT_0\.GATES_38\.result
*26 CIRCUIT_0\.GATES_39\.result
*27 CIRCUIT_0\.GATES_40\.result
*28 CIRCUIT_0\.GATES_41\.result
*29 CIRCUIT_0\.GATES_42\.result
*30 CIRCUIT_0\.GATES_54\.result
*31 CIRCUIT_0\.GATES_61\.result
*32 CIRCUIT_0\.GATES_9\.result
*33 CIRCUIT_0\.MEMORY_63\.d
*34 CIRCUIT_0\.MEMORY_63\.s_currentState
*35 CIRCUIT_0\.MEMORY_64\.d
*36 CIRCUIT_0\.MEMORY_64\.s_currentState
*37 CIRCUIT_0\.MEMORY_65\.d
*38 CIRCUIT_0\.MEMORY_65\.s_currentState
*39 CIRCUIT_0\.MEMORY_66\.d
*40 CIRCUIT_0\.MEMORY_66\.s_currentState
*41 CIRCUIT_0\.MEMORY_67\.d
*42 CIRCUIT_0\.MEMORY_67\.s_currentState
*43 CIRCUIT_0\.MEMORY_68\.d
*44 CIRCUIT_0\.MEMORY_68\.s_currentState
*45 CIRCUIT_0\.MEMORY_69\.s_currentState
*46 CIRCUIT_0\.MEMORY_70\.s_currentState
*47 CIRCUIT_0\.MEMORY_71\.s_currentState
*48 CIRCUIT_0\.MEMORY_72\.s_currentState
*49 CIRCUIT_0\.MEMORY_73\.s_currentState
*50 CIRCUIT_0\.MEMORY_74\.s_currentState
*51 CIRCUIT_0\.MEMORY_75\.s_currentState
*52 CIRCUIT_0\.MEMORY_76\.s_currentState
*53 CIRCUIT_0\.MEMORY_77\.s_currentState
*54 CIRCUIT_0\.MEMORY_78\.s_currentState
*55 CIRCUIT_0\.MEMORY_79\.s_currentState
*56 CIRCUIT_0\.MEMORY_80\.s_currentState
*57 CIRCUIT_0\.MEMORY_81\.s_currentState
*58 CIRCUIT_0\.MEMORY_82\.s_currentState
*59 CIRCUIT_0\.MEMORY_83\.s_currentState
*60 CIRCUIT_0\.MEMORY_84\.s_currentState
*61 CIRCUIT_0\.MEMORY_85\.s_currentState
*62 CIRCUIT_0\.MEMORY_86\.s_currentState
*63 CIRCUIT_0\.MEMORY_87\.s_currentState
*64 CIRCUIT_0\.MEMORY_88\.s_currentState
*65 CIRCUIT_0\.MEMORY_89\.s_currentState
*66 CIRCUIT_0\.O_4_MAR
*67 CIRCUIT_0\.O_5_WRITE
*68 CIRCUIT_0\.O_6_JMP
*69 CIRCUIT_0\.O_7_I
*70 CIRCUIT_0\.O_D0_RR0
*71 CIRCUIT_0\.O_D1_RR1
*72 CIRCUIT_0\.O_D2_RR2
*73 CIRCUIT_0\.O_D3_RR3
*74 CIRCUIT_0\.clock_gen_2_1\.CLK1
*75 CIRCUIT_0\.clock_gen_2_1\.GATES_1\.input2
*76 CIRCUIT_0\.clock_gen_2_1\.GATES_3\.result
*77 CIRCUIT_0\.clock_gen_2_1\.MEMORY_4\.d
*78 CIRCUIT_0\.clock_gen_2_1\.MEMORY_4\.s_currentState
*79 CIRCUIT_0\.clock_gen_2_1\.MEMORY_5\.d
*80 CIRCUIT_0\.clock_gen_2_1\.MEMORY_5\.s_currentState
*81 CIRCUIT_0\.clock_gen_2_1\.MEMORY_6\.s_currentState
*82 CIRCUIT_0\.dest_reg_sel_new_1\.GATES_14\.input1
*83 CIRCUIT_0\.dest_reg_sel_new_1\.GATES_14\.input2
*84 CIRCUIT_0\.dest_reg_sel_new_1\.GATES_26\.result
*85 CIRCUIT_0\.inst_dec_1\.MEMORY_21\.s_currentState
*86 CIRCUIT_0\.inst_dec_1\.MEMORY_22\.s_currentState
*87 CIRCUIT_0\.inst_dec_1\.MEMORY_23\.s_currentState
*88 CIRCUIT_0\.inst_dec_1\.MEMORY_24\.s_currentState
*89 CIRCUIT_0\.int_memory_1\.GATES_1\.input2\[0\]
*90 CIRCUIT_0\.int_memory_1\.GATES_1\.input2\[1\]
*91 CIRCUIT_0\.int_memory_1\.GATES_1\.input2\[2\]
*92 CIRCUIT_0\.int_memory_1\.GATES_1\.input2\[3\]
*93 CIRCUIT_0\.int_memory_1\.GATES_12\.result
*94 CIRCUIT_0\.int_memory_1\.GATES_13\.result
*95 CIRCUIT_0\.int_memory_1\.GATES_14\.result
*96 CIRCUIT_0\.int_memory_1\.GATES_15\.result
*97 CIRCUIT_0\.int_memory_1\.GATES_16\.result
*98 CIRCUIT_0\.int_memory_1\.GATES_17\.result
*99 CIRCUIT_0\.int_memory_1\.GATES_2\.input2\[0\]
*100 CIRCUIT_0\.int_memory_1\.GATES_2\.input2\[1\]
*101 CIRCUIT_0\.int_memory_1\.GATES_2\.input2\[2\]
*102 CIRCUIT_0\.int_memory_1\.GATES_2\.input2\[3\]
*103 CIRCUIT_0\.int_memory_1\.GATES_3\.input2\[0\]
*104 CIRCUIT_0\.int_memory_1\.GATES_3\.input2\[1\]
*105 CIRCUIT_0\.int_memory_1\.GATES_3\.input2\[2\]
*106 CIRCUIT_0\.int_memory_1\.GATES_3\.input2\[3\]
*107 CIRCUIT_0\.int_memory_1\.GATES_4\.input2\[0\]
*108 CIRCUIT_0\.int_memory_1\.GATES_4\.input2\[1\]
*109 CIRCUIT_0\.int_memory_1\.GATES_4\.input2\[2\]
*110 CIRCUIT_0\.int_memory_1\.GATES_4\.input2\[3\]
*111 CIRCUIT_0\.int_memory_1\.GATES_5\.input2\[0\]
*112 CIRCUIT_0\.int_memory_1\.GATES_5\.input2\[1\]
*113 CIRCUIT_0\.int_memory_1\.GATES_5\.input2\[2\]
*114 CIRCUIT_0\.int_memory_1\.GATES_5\.input2\[3\]
*115 CIRCUIT_0\.int_memory_1\.GATES_6\.input2\[0\]
*116 CIRCUIT_0\.int_memory_1\.GATES_6\.input2\[1\]
*117 CIRCUIT_0\.int_memory_1\.GATES_6\.input2\[2\]
*118 CIRCUIT_0\.int_memory_1\.GATES_6\.input2\[3\]
*119 _000_
*120 _001_
*121 _002_
*122 _003_
*123 _004_
*124 _005_
*125 _006_
*126 _007_
*127 _008_
*128 _009_
*129 _010_
*130 _011_
*131 _012_
*132 _013_
*133 _014_
*134 _015_
*135 _016_
*136 _017_
*137 _018_
*138 _019_
*139 _020_
*140 _021_
*141 _022_
*142 _023_
*143 _024_
*144 _025_
*145 _026_
*146 _027_
*147 _028_
*148 _029_
*149 _030_
*150 _031_
*151 _032_
*152 _033_
*153 _034_
*154 _035_
*155 _036_
*156 _037_
*157 _038_
*158 _039_
*159 _040_
*160 _041_
*161 _042_
*162 _043_
*163 _044_
*164 _045_
*165 _046_
*166 _047_
*167 _048_
*168 _049_
*169 _050_
*170 _051_
*171 _052_
*172 _053_
*173 _054_
*174 _055_
*175 _056_
*176 _057_
*177 _058_
*178 _059_
*179 _060_
*180 _061_
*181 _062_
*182 _063_
*183 _064_
*184 _065_
*185 _066_
*186 _067_
*187 _068_
*188 _069_
*189 _070_
*190 _071_
*191 _072_
*192 _073_
*193 _074_
*194 _075_
*195 _076_
*196 _077_
*197 _078_
*198 _079_
*199 _080_
*200 _081_
*201 _082_
*202 _083_
*203 _084_
*204 _085_
*205 _086_
*206 _087_
*207 _088_
*208 _089_
*209 _090_
*210 _091_
*211 _092_
*212 _093_
*213 _094_
*214 _095_
*215 _096_
*216 _097_
*217 _098_
*218 _099_
*219 _100_
*220 _101_
*221 _102_
*222 _103_
*223 _104_
*224 _105_
*225 _106_
*226 _107_
*227 _108_
*228 _109_
*229 _110_
*230 _111_
*231 _112_
*232 _113_
*233 _114_
*234 _115_
*235 _116_
*236 _117_
*237 _118_
*238 _119_
*239 _120_
*240 _121_
*241 _122_
*242 _123_
*243 _124_
*244 _125_
*245 _126_
*246 _127_
*247 _128_
*248 _129_
*249 _130_
*250 _131_
*251 _132_
*252 _133_
*253 _134_
*254 _135_
*255 _136_
*256 _137_
*257 _138_
*258 _139_
*259 _140_
*260 _141_
*261 _142_
*262 _143_
*263 _144_
*264 _145_
*265 _146_
*266 _147_
*267 _148_
*268 _149_
*269 _150_
*270 _151_
*271 _152_
*272 _153_
*273 _154_
*274 _155_
*275 _156_
*276 _157_
*277 _158_
*278 _159_
*279 _160_
*280 _161_
*281 _162_
*282 _163_
*283 _164_
*284 _165_
*285 _166_
*286 _167_
*287 _168_
*288 _169_
*289 _170_
*290 _171_
*291 _172_
*292 _173_
*293 _174_
*294 _175_
*295 _176_
*296 _177_
*297 _178_
*298 _179_
*299 _180_
*300 _181_
*301 _182_
*302 _183_
*303 _184_
*304 _185_
*305 _186_
*306 _187_
*307 _188_
*308 _189_
*309 _190_
*310 _191_
*311 _192_
*312 _193_
*313 _194_
*314 _195_
*315 _196_
*316 _197_
*317 _198_
*318 _199_
*319 _200_
*320 _201_
*321 _202_
*322 _203_
*323 _204_
*324 _205_
*325 _206_
*326 _207_
*327 _208_
*328 _209_
*329 _210_
*330 _211_
*331 _212_
*332 _213_
*333 _214_
*334 _215_
*335 _216_
*336 _217_
*337 _218_
*338 _219_
*339 _220_
*340 _221_
*341 _222_
*342 clknet_0_CIRCUIT_0\.int_memory_1\.GATES_12\.result
*343 clknet_0_CIRCUIT_0\.int_memory_1\.GATES_13\.result
*344 clknet_0_CIRCUIT_0\.int_memory_1\.GATES_14\.result
*345 clknet_0_CIRCUIT_0\.int_memory_1\.GATES_15\.result
*346 clknet_0_CIRCUIT_0\.int_memory_1\.GATES_16\.result
*347 clknet_0_CIRCUIT_0\.int_memory_1\.GATES_17\.result
*348 clknet_0__045_
*349 clknet_0__046_
*350 clknet_0__063_
*351 clknet_0__220_
*352 clknet_0__222_
*353 clknet_0_io_in[0]
*354 clknet_1_0__leaf_CIRCUIT_0\.int_memory_1\.GATES_12\.result
*355 clknet_1_0__leaf_CIRCUIT_0\.int_memory_1\.GATES_13\.result
*356 clknet_1_0__leaf_CIRCUIT_0\.int_memory_1\.GATES_14\.result
*357 clknet_1_0__leaf_CIRCUIT_0\.int_memory_1\.GATES_15\.result
*358 clknet_1_0__leaf_CIRCUIT_0\.int_memory_1\.GATES_16\.result
*359 clknet_1_0__leaf_CIRCUIT_0\.int_memory_1\.GATES_17\.result
*360 clknet_1_0__leaf__045_
*361 clknet_1_0__leaf__046_
*362 clknet_1_0__leaf__063_
*363 clknet_1_0__leaf__220_
*364 clknet_1_0__leaf__222_
*365 clknet_1_0__leaf_io_in[0]
*366 clknet_1_1__leaf_CIRCUIT_0\.int_memory_1\.GATES_12\.result
*367 clknet_1_1__leaf_CIRCUIT_0\.int_memory_1\.GATES_13\.result
*368 clknet_1_1__leaf_CIRCUIT_0\.int_memory_1\.GATES_14\.result
*369 clknet_1_1__leaf_CIRCUIT_0\.int_memory_1\.GATES_15\.result
*370 clknet_1_1__leaf_CIRCUIT_0\.int_memory_1\.GATES_16\.result
*371 clknet_1_1__leaf_CIRCUIT_0\.int_memory_1\.GATES_17\.result
*372 clknet_1_1__leaf__045_
*373 clknet_1_1__leaf__046_
*374 clknet_1_1__leaf__063_
*375 clknet_1_1__leaf__220_
*376 clknet_1_1__leaf__222_
*377 clknet_1_1__leaf_io_in[0]
*378 net1
*379 net2
*380 net3
*381 net4
*382 net5
*383 net6
*384 net7
*385 net8
*386 ANTENNA_0
*387 ANTENNA_1
*388 ANTENNA_2
*389 ANTENNA_3
*390 ANTENNA_4
*391 ANTENNA_5
*392 ANTENNA_6
*393 ANTENNA_7
*394 ANTENNA_8
*395 ANTENNA_9
*396 FILLER_0_100
*397 FILLER_0_108
*398 FILLER_0_118
*399 FILLER_0_127
*400 FILLER_0_136
*401 FILLER_0_14
*402 FILLER_0_146
*403 FILLER_0_154
*404 FILLER_0_161
*405 FILLER_0_167
*406 FILLER_0_24
*407 FILLER_0_3
*408 FILLER_0_34
*409 FILLER_0_45
*410 FILLER_0_52
*411 FILLER_0_63
*412 FILLER_0_7
*413 FILLER_0_73
*414 FILLER_0_80
*415 FILLER_0_91
*416 FILLER_10_109
*417 FILLER_10_129
*418 FILLER_10_136
*419 FILLER_10_147
*420 FILLER_10_157
*421 FILLER_10_164
*422 FILLER_10_24
*423 FILLER_10_29
*424 FILLER_10_3
*425 FILLER_10_41
*426 FILLER_10_65
*427 FILLER_10_73
*428 FILLER_10_80
*429 FILLER_10_89
*430 FILLER_11_108
*431 FILLER_11_121
*432 FILLER_11_145
*433 FILLER_11_151
*434 FILLER_11_158
*435 FILLER_11_166
*436 FILLER_11_28
*437 FILLER_11_3
*438 FILLER_11_52
*439 FILLER_11_57
*440 FILLER_11_69
*441 FILLER_11_7
*442 FILLER_11_93
*443 FILLER_12_100
*444 FILLER_12_121
*445 FILLER_12_135
*446 FILLER_12_139
*447 FILLER_12_148
*448 FILLER_12_158
*449 FILLER_12_166
*450 FILLER_12_24
*451 FILLER_12_3
*452 FILLER_12_39
*453 FILLER_12_65
*454 FILLER_12_75
*455 FILLER_12_83
*456 FILLER_12_94
*457 FILLER_13_104
*458 FILLER_13_129
*459 FILLER_13_142
*460 FILLER_13_151
*461 FILLER_13_155
*462 FILLER_13_163
*463 FILLER_13_167
*464 FILLER_13_25
*465 FILLER_13_3
*466 FILLER_13_49
*467 FILLER_13_55
*468 FILLER_13_77
*469 FILLER_13_83
*470 FILLER_14_109
*471 FILLER_14_129
*472 FILLER_14_136
*473 FILLER_14_148
*474 FILLER_14_158
*475 FILLER_14_166
*476 FILLER_14_24
*477 FILLER_14_3
*478 FILLER_14_36
*479 FILLER_14_60
*480 FILLER_14_80
*481 FILLER_14_85
*482 FILLER_15_108
*483 FILLER_15_129
*484 FILLER_15_14
*485 FILLER_15_149
*486 FILLER_15_159
*487 FILLER_15_167
*488 FILLER_15_3
*489 FILLER_15_39
*490 FILLER_15_47
*491 FILLER_15_55
*492 FILLER_15_60
*493 FILLER_15_84
*494 FILLER_16_121
*495 FILLER_16_125
*496 FILLER_16_136
*497 FILLER_16_141
*498 FILLER_16_151
*499 FILLER_16_162
*500 FILLER_16_24
*501 FILLER_16_3
*502 FILLER_16_32
*503 FILLER_16_56
*504 FILLER_16_80
*505 FILLER_16_85
*506 FILLER_16_97
*507 FILLER_17_108
*508 FILLER_17_11
*509 FILLER_17_129
*510 FILLER_17_141
*511 FILLER_17_152
*512 FILLER_17_162
*513 FILLER_17_36
*514 FILLER_17_49
*515 FILLER_17_55
*516 FILLER_17_67
*517 FILLER_17_93
*518 FILLER_17_97
*519 FILLER_18_101
*520 FILLER_18_121
*521 FILLER_18_136
*522 FILLER_18_148
*523 FILLER_18_158
*524 FILLER_18_166
*525 FILLER_18_24
*526 FILLER_18_3
*527 FILLER_18_32
*528 FILLER_18_56
*529 FILLER_18_80
*530 FILLER_19_106
*531 FILLER_19_129
*532 FILLER_19_140
*533 FILLER_19_15
*534 FILLER_19_151
*535 FILLER_19_161
*536 FILLER_19_167
*537 FILLER_19_3
*538 FILLER_19_40
*539 FILLER_19_52
*540 FILLER_19_57
*541 FILLER_19_75
*542 FILLER_19_99
*543 FILLER_1_101
*544 FILLER_1_108
*545 FILLER_1_118
*546 FILLER_1_127
*547 FILLER_1_13
*548 FILLER_1_136
*549 FILLER_1_145
*550 FILLER_1_152
*551 FILLER_1_159
*552 FILLER_1_167
*553 FILLER_1_24
*554 FILLER_1_28
*555 FILLER_1_3
*556 FILLER_1_38
*557 FILLER_1_44
*558 FILLER_1_52
*559 FILLER_1_61
*560 FILLER_1_81
*561 FILLER_1_91
*562 FILLER_20_109
*563 FILLER_20_129
*564 FILLER_20_136
*565 FILLER_20_147
*566 FILLER_20_157
*567 FILLER_20_164
*568 FILLER_20_24
*569 FILLER_20_50
*570 FILLER_20_58
*571 FILLER_20_80
*572 FILLER_20_85
*573 FILLER_20_89
*574 FILLER_21_101
*575 FILLER_21_108
*576 FILLER_21_122
*577 FILLER_21_135
*578 FILLER_21_145
*579 FILLER_21_151
*580 FILLER_21_158
*581 FILLER_21_16
*582 FILLER_21_166
*583 FILLER_21_3
*584 FILLER_21_41
*585 FILLER_21_52
*586 FILLER_21_67
*587 FILLER_21_93
*588 FILLER_21_97
*589 FILLER_22_109
*590 FILLER_22_120
*591 FILLER_22_131
*592 FILLER_22_139
*593 FILLER_22_147
*594 FILLER_22_154
*595 FILLER_22_163
*596 FILLER_22_167
*597 FILLER_22_24
*598 FILLER_22_3
*599 FILLER_22_49
*600 FILLER_22_56
*601 FILLER_22_80
*602 FILLER_22_85
*603 FILLER_23_107
*604 FILLER_23_111
*605 FILLER_23_12
*606 FILLER_23_120
*607 FILLER_23_130
*608 FILLER_23_134
*609 FILLER_23_140
*610 FILLER_23_149
*611 FILLER_23_161
*612 FILLER_23_167
*613 FILLER_23_36
*614 FILLER_23_45
*615 FILLER_23_52
*616 FILLER_23_57
*617 FILLER_23_69
*618 FILLER_23_93
*619 FILLER_24_108
*620 FILLER_24_118
*621 FILLER_24_128
*622 FILLER_24_135
*623 FILLER_24_139
*624 FILLER_24_144
*625 FILLER_24_151
*626 FILLER_24_158
*627 FILLER_24_166
*628 FILLER_24_24
*629 FILLER_24_29
*630 FILLER_24_3
*631 FILLER_24_33
*632 FILLER_24_50
*633 FILLER_24_7
*634 FILLER_24_70
*635 FILLER_24_78
*636 FILLER_24_95
*637 FILLER_25_106
*638 FILLER_25_11
*639 FILLER_25_119
*640 FILLER_25_126
*641 FILLER_25_133
*642 FILLER_25_140
*643 FILLER_25_148
*644 FILLER_25_15
*645 FILLER_25_153
*646 FILLER_25_160
*647 FILLER_25_32
*648 FILLER_25_52
*649 FILLER_25_67
*650 FILLER_25_95
*651 FILLER_26_101
*652 FILLER_26_111
*653 FILLER_26_118
*654 FILLER_26_125
*655 FILLER_26_132
*656 FILLER_26_141
*657 FILLER_26_147
*658 FILLER_26_155
*659 FILLER_26_160
*660 FILLER_26_19
*661 FILLER_26_27
*662 FILLER_26_29
*663 FILLER_26_34
*664 FILLER_26_41
*665 FILLER_26_65
*666 FILLER_26_78
*667 FILLER_26_91
*668 FILLER_27_10
*669 FILLER_27_107
*670 FILLER_27_111
*671 FILLER_27_116
*672 FILLER_27_123
*673 FILLER_27_135
*674 FILLER_27_147
*675 FILLER_27_153
*676 FILLER_27_157
*677 FILLER_27_165
*678 FILLER_27_32
*679 FILLER_27_52
*680 FILLER_27_67
*681 FILLER_27_73
*682 FILLER_27_81
*683 FILLER_27_89
*684 FILLER_27_97
*685 FILLER_28_109
*686 FILLER_28_116
*687 FILLER_28_128
*688 FILLER_28_141
*689 FILLER_28_153
*690 FILLER_28_165
*691 FILLER_28_24
*692 FILLER_28_29
*693 FILLER_28_3
*694 FILLER_28_33
*695 FILLER_28_41
*696 FILLER_28_65
*697 FILLER_28_7
*698 FILLER_28_73
*699 FILLER_28_80
*700 FILLER_28_85
*701 FILLER_29_100
*702 FILLER_29_105
*703 FILLER_29_111
*704 FILLER_29_113
*705 FILLER_29_125
*706 FILLER_29_137
*707 FILLER_29_149
*708 FILLER_29_161
*709 FILLER_29_167
*710 FILLER_29_25
*711 FILLER_29_3
*712 FILLER_29_45
*713 FILLER_29_52
*714 FILLER_29_64
*715 FILLER_29_74
*716 FILLER_29_82
*717 FILLER_29_89
*718 FILLER_29_96
*719 FILLER_2_101
*720 FILLER_2_110
*721 FILLER_2_119
*722 FILLER_2_128
*723 FILLER_2_13
*724 FILLER_2_136
*725 FILLER_2_145
*726 FILLER_2_152
*727 FILLER_2_163
*728 FILLER_2_167
*729 FILLER_2_24
*730 FILLER_2_38
*731 FILLER_2_44
*732 FILLER_2_65
*733 FILLER_2_76
*734 FILLER_2_91
*735 FILLER_30_107
*736 FILLER_30_119
*737 FILLER_30_131
*738 FILLER_30_139
*739 FILLER_30_141
*740 FILLER_30_153
*741 FILLER_30_165
*742 FILLER_30_24
*743 FILLER_30_29
*744 FILLER_30_3
*745 FILLER_30_33
*746 FILLER_30_50
*747 FILLER_30_54
*748 FILLER_30_61
*749 FILLER_30_7
*750 FILLER_30_71
*751 FILLER_30_80
*752 FILLER_30_88
*753 FILLER_30_95
*754 FILLER_31_104
*755 FILLER_31_113
*756 FILLER_31_125
*757 FILLER_31_137
*758 FILLER_31_149
*759 FILLER_31_161
*760 FILLER_31_167
*761 FILLER_31_24
*762 FILLER_31_28
*763 FILLER_31_3
*764 FILLER_31_45
*765 FILLER_31_52
*766 FILLER_31_63
*767 FILLER_31_7
*768 FILLER_31_71
*769 FILLER_31_78
*770 FILLER_31_85
*771 FILLER_31_92
*772 FILLER_32_10
*773 FILLER_32_109
*774 FILLER_32_121
*775 FILLER_32_133
*776 FILLER_32_139
*777 FILLER_32_14
*778 FILLER_32_141
*779 FILLER_32_153
*780 FILLER_32_165
*781 FILLER_32_24
*782 FILLER_32_29
*783 FILLER_32_3
*784 FILLER_32_37
*785 FILLER_32_51
*786 FILLER_32_60
*787 FILLER_32_64
*788 FILLER_32_68
*789 FILLER_32_75
*790 FILLER_32_83
*791 FILLER_32_85
*792 FILLER_32_97
*793 FILLER_33_103
*794 FILLER_33_11
*795 FILLER_33_111
*796 FILLER_33_113
*797 FILLER_33_125
*798 FILLER_33_137
*799 FILLER_33_149
*800 FILLER_33_161
*801 FILLER_33_167
*802 FILLER_33_22
*803 FILLER_33_31
*804 FILLER_33_39
*805 FILLER_33_46
*806 FILLER_33_54
*807 FILLER_33_60
*808 FILLER_33_67
*809 FILLER_33_79
*810 FILLER_33_91
*811 FILLER_34_109
*812 FILLER_34_121
*813 FILLER_34_133
*814 FILLER_34_139
*815 FILLER_34_141
*816 FILLER_34_15
*817 FILLER_34_153
*818 FILLER_34_165
*819 FILLER_34_19
*820 FILLER_34_24
*821 FILLER_34_3
*822 FILLER_34_33
*823 FILLER_34_40
*824 FILLER_34_47
*825 FILLER_34_54
*826 FILLER_34_61
*827 FILLER_34_73
*828 FILLER_34_8
*829 FILLER_34_81
*830 FILLER_34_85
*831 FILLER_34_97
*832 FILLER_35_105
*833 FILLER_35_111
*834 FILLER_35_113
*835 FILLER_35_125
*836 FILLER_35_137
*837 FILLER_35_14
*838 FILLER_35_149
*839 FILLER_35_161
*840 FILLER_35_167
*841 FILLER_35_22
*842 FILLER_35_30
*843 FILLER_35_35
*844 FILLER_35_39
*845 FILLER_35_44
*846 FILLER_35_51
*847 FILLER_35_55
*848 FILLER_35_57
*849 FILLER_35_6
*850 FILLER_35_69
*851 FILLER_35_81
*852 FILLER_35_93
*853 FILLER_36_109
*854 FILLER_36_121
*855 FILLER_36_133
*856 FILLER_36_139
*857 FILLER_36_141
*858 FILLER_36_153
*859 FILLER_36_16
*860 FILLER_36_165
*861 FILLER_36_24
*862 FILLER_36_3
*863 FILLER_36_32
*864 FILLER_36_39
*865 FILLER_36_51
*866 FILLER_36_63
*867 FILLER_36_75
*868 FILLER_36_8
*869 FILLER_36_83
*870 FILLER_36_85
*871 FILLER_36_97
*872 FILLER_37_105
*873 FILLER_37_111
*874 FILLER_37_113
*875 FILLER_37_125
*876 FILLER_37_137
*877 FILLER_37_149
*878 FILLER_37_16
*879 FILLER_37_161
*880 FILLER_37_167
*881 FILLER_37_23
*882 FILLER_37_3
*883 FILLER_37_30
*884 FILLER_37_42
*885 FILLER_37_54
*886 FILLER_37_57
*887 FILLER_37_69
*888 FILLER_37_8
*889 FILLER_37_81
*890 FILLER_37_93
*891 FILLER_38_109
*892 FILLER_38_121
*893 FILLER_38_133
*894 FILLER_38_139
*895 FILLER_38_14
*896 FILLER_38_141
*897 FILLER_38_153
*898 FILLER_38_165
*899 FILLER_38_21
*900 FILLER_38_27
*901 FILLER_38_29
*902 FILLER_38_41
*903 FILLER_38_53
*904 FILLER_38_65
*905 FILLER_38_7
*906 FILLER_38_77
*907 FILLER_38_83
*908 FILLER_38_85
*909 FILLER_38_97
*910 FILLER_39_10
*911 FILLER_39_109
*912 FILLER_39_113
*913 FILLER_39_125
*914 FILLER_39_137
*915 FILLER_39_141
*916 FILLER_39_153
*917 FILLER_39_165
*918 FILLER_39_22
*919 FILLER_39_29
*920 FILLER_39_41
*921 FILLER_39_53
*922 FILLER_39_57
*923 FILLER_39_6
*924 FILLER_39_69
*925 FILLER_39_81
*926 FILLER_39_85
*927 FILLER_39_97
*928 FILLER_3_103
*929 FILLER_3_111
*930 FILLER_3_118
*931 FILLER_3_12
*932 FILLER_3_127
*933 FILLER_3_135
*934 FILLER_3_143
*935 FILLER_3_150
*936 FILLER_3_157
*937 FILLER_3_164
*938 FILLER_3_3
*939 FILLER_3_32
*940 FILLER_3_52
*941 FILLER_3_66
*942 FILLER_3_72
*943 FILLER_3_93
*944 FILLER_4_101
*945 FILLER_4_110
*946 FILLER_4_119
*947 FILLER_4_127
*948 FILLER_4_135
*949 FILLER_4_139
*950 FILLER_4_145
*951 FILLER_4_152
*952 FILLER_4_159
*953 FILLER_4_16
*954 FILLER_4_167
*955 FILLER_4_24
*956 FILLER_4_3
*957 FILLER_4_39
*958 FILLER_4_65
*959 FILLER_4_76
*960 FILLER_5_10
*961 FILLER_5_108
*962 FILLER_5_119
*963 FILLER_5_127
*964 FILLER_5_134
*965 FILLER_5_143
*966 FILLER_5_151
*967 FILLER_5_159
*968 FILLER_5_164
*969 FILLER_5_32
*970 FILLER_5_52
*971 FILLER_5_61
*972 FILLER_5_81
*973 FILLER_5_87
*974 FILLER_6_10
*975 FILLER_6_100
*976 FILLER_6_121
*977 FILLER_6_130
*978 FILLER_6_138
*979 FILLER_6_146
*980 FILLER_6_155
*981 FILLER_6_163
*982 FILLER_6_167
*983 FILLER_6_24
*984 FILLER_6_39
*985 FILLER_6_65
*986 FILLER_6_73
*987 FILLER_6_80
*988 FILLER_6_92
*989 FILLER_7_105
*990 FILLER_7_111
*991 FILLER_7_119
*992 FILLER_7_147
*993 FILLER_7_151
*994 FILLER_7_158
*995 FILLER_7_166
*996 FILLER_7_28
*997 FILLER_7_52
*998 FILLER_7_66
*999 FILLER_7_8
*1000 FILLER_7_94
*1001 FILLER_8_119
*1002 FILLER_8_123
*1003 FILLER_8_130
*1004 FILLER_8_138
*1005 FILLER_8_146
*1006 FILLER_8_155
*1007 FILLER_8_164
*1008 FILLER_8_24
*1009 FILLER_8_29
*1010 FILLER_8_3
*1011 FILLER_8_41
*1012 FILLER_8_65
*1013 FILLER_8_79
*1014 FILLER_8_83
*1015 FILLER_8_85
*1016 FILLER_8_97
*1017 FILLER_9_104
*1018 FILLER_9_129
*1019 FILLER_9_139
*1020 FILLER_9_149
*1021 FILLER_9_158
*1022 FILLER_9_166
*1023 FILLER_9_25
*1024 FILLER_9_3
*1025 FILLER_9_49
*1026 FILLER_9_55
*1027 FILLER_9_64
*1028 FILLER_9_84
*1029 PHY_0
*1030 PHY_1
*1031 PHY_10
*1032 PHY_11
*1033 PHY_12
*1034 PHY_13
*1035 PHY_14
*1036 PHY_15
*1037 PHY_16
*1038 PHY_17
*1039 PHY_18
*1040 PHY_19
*1041 PHY_2
*1042 PHY_20
*1043 PHY_21
*1044 PHY_22
*1045 PHY_23
*1046 PHY_24
*1047 PHY_25
*1048 PHY_26
*1049 PHY_27
*1050 PHY_28
*1051 PHY_29
*1052 PHY_3
*1053 PHY_30
*1054 PHY_31
*1055 PHY_32
*1056 PHY_33
*1057 PHY_34
*1058 PHY_35
*1059 PHY_36
*1060 PHY_37
*1061 PHY_38
*1062 PHY_39
*1063 PHY_4
*1064 PHY_40
*1065 PHY_41
*1066 PHY_42
*1067 PHY_43
*1068 PHY_44
*1069 PHY_45
*1070 PHY_46
*1071 PHY_47
*1072 PHY_48
*1073 PHY_49
*1074 PHY_5
*1075 PHY_50
*1076 PHY_51
*1077 PHY_52
*1078 PHY_53
*1079 PHY_54
*1080 PHY_55
*1081 PHY_56
*1082 PHY_57
*1083 PHY_58
*1084 PHY_59
*1085 PHY_6
*1086 PHY_60
*1087 PHY_61
*1088 PHY_62
*1089 PHY_63
*1090 PHY_64
*1091 PHY_65
*1092 PHY_66
*1093 PHY_67
*1094 PHY_68
*1095 PHY_69
*1096 PHY_7
*1097 PHY_70
*1098 PHY_71
*1099 PHY_72
*1100 PHY_73
*1101 PHY_74
*1102 PHY_75
*1103 PHY_76
*1104 PHY_77
*1105 PHY_78
*1106 PHY_79
*1107 PHY_8
*1108 PHY_9
*1109 TAP_100
*1110 TAP_101
*1111 TAP_102
*1112 TAP_103
*1113 TAP_104
*1114 TAP_105
*1115 TAP_106
*1116 TAP_107
*1117 TAP_108
*1118 TAP_109
*1119 TAP_110
*1120 TAP_111
*1121 TAP_112
*1122 TAP_113
*1123 TAP_114
*1124 TAP_115
*1125 TAP_116
*1126 TAP_117
*1127 TAP_118
*1128 TAP_119
*1129 TAP_120
*1130 TAP_121
*1131 TAP_122
*1132 TAP_123
*1133 TAP_124
*1134 TAP_125
*1135 TAP_126
*1136 TAP_127
*1137 TAP_128
*1138 TAP_129
*1139 TAP_130
*1140 TAP_131
*1141 TAP_132
*1142 TAP_133
*1143 TAP_134
*1144 TAP_135
*1145 TAP_136
*1146 TAP_137
*1147 TAP_138
*1148 TAP_139
*1149 TAP_140
*1150 TAP_141
*1151 TAP_142
*1152 TAP_143
*1153 TAP_144
*1154 TAP_145
*1155 TAP_146
*1156 TAP_147
*1157 TAP_148
*1158 TAP_149
*1159 TAP_150
*1160 TAP_151
*1161 TAP_152
*1162 TAP_153
*1163 TAP_154
*1164 TAP_155
*1165 TAP_156
*1166 TAP_157
*1167 TAP_158
*1168 TAP_159
*1169 TAP_160
*1170 TAP_161
*1171 TAP_162
*1172 TAP_163
*1173 TAP_164
*1174 TAP_165
*1175 TAP_166
*1176 TAP_167
*1177 TAP_168
*1178 TAP_169
*1179 TAP_170
*1180 TAP_171
*1181 TAP_172
*1182 TAP_173
*1183 TAP_174
*1184 TAP_175
*1185 TAP_176
*1186 TAP_177
*1187 TAP_178
*1188 TAP_179
*1189 TAP_180
*1190 TAP_181
*1191 TAP_182
*1192 TAP_183
*1193 TAP_184
*1194 TAP_80
*1195 TAP_81
*1196 TAP_82
*1197 TAP_83
*1198 TAP_84
*1199 TAP_85
*1200 TAP_86
*1201 TAP_87
*1202 TAP_88
*1203 TAP_89
*1204 TAP_90
*1205 TAP_91
*1206 TAP_92
*1207 TAP_93
*1208 TAP_94
*1209 TAP_95
*1210 TAP_96
*1211 TAP_97
*1212 TAP_98
*1213 TAP_99
*1214 _223_
*1215 _224_
*1216 _225_
*1217 _226_
*1218 _227_
*1219 _228_
*1220 _229_
*1221 _230_
*1222 _231_
*1223 _232_
*1224 _233_
*1225 _234_
*1226 _235_
*1227 _236_
*1228 _237_
*1229 _238_
*1230 _239_
*1231 _240_
*1232 _241_
*1233 _242_
*1234 _243_
*1235 _244_
*1236 _245_
*1237 _246_
*1238 _247_
*1239 _248_
*1240 _249_
*1241 _250_
*1242 _251_
*1243 _252_
*1244 _253_
*1245 _254_
*1246 _255_
*1247 _256_
*1248 _257_
*1249 _258_
*1250 _259_
*1251 _260_
*1252 _261_
*1253 _262_
*1254 _263_
*1255 _264_
*1256 _265_
*1257 _266_
*1258 _267_
*1259 _268_
*1260 _269_
*1261 _270_
*1262 _271_
*1263 _272_
*1264 _273_
*1265 _274_
*1266 _275_
*1267 _276_
*1268 _277_
*1269 _278_
*1270 _279_
*1271 _280_
*1272 _281_
*1273 _282_
*1274 _283_
*1275 _284_
*1276 _285_
*1277 _286_
*1278 _287_
*1279 _288_
*1280 _289_
*1281 _290_
*1282 _291_
*1283 _292_
*1284 _293_
*1285 _294_
*1286 _295_
*1287 _296_
*1288 _297_
*1289 _298_
*1290 _299_
*1291 _300_
*1292 _301_
*1293 _302_
*1294 _303_
*1295 _304_
*1296 _305_
*1297 _306_
*1298 _307_
*1299 _308_
*1300 _309_
*1301 _310_
*1302 _311_
*1303 _312_
*1304 _313_
*1305 _314_
*1306 _315_
*1307 _316_
*1308 _317_
*1309 _318_
*1310 _319_
*1311 _320_
*1312 _321_
*1313 _322_
*1314 _323_
*1315 _324_
*1316 _325_
*1317 _326_
*1318 _327_
*1319 _328_
*1320 _329_
*1321 _330_
*1322 _331_
*1323 _332_
*1324 _333_
*1325 _334_
*1326 _335_
*1327 _336_
*1328 _337_
*1329 _338_
*1330 _339_
*1331 _340_
*1332 _341_
*1333 _342_
*1334 _343_
*1335 _344_
*1336 _345_
*1337 _346_
*1338 _347_
*1339 _348_
*1340 _349_
*1341 _350_
*1342 _351_
*1343 _352_
*1344 _353_
*1345 _354_
*1346 _355_
*1347 _356_
*1348 _357_
*1349 _358_
*1350 _359_
*1351 _360_
*1352 _361_
*1353 _362_
*1354 _363_
*1355 _364_
*1356 _365_
*1357 _366_
*1358 _367_
*1359 _368_
*1360 _369_
*1361 _370_
*1362 _371_
*1363 _372_
*1364 _373_
*1365 _374_
*1366 _375_
*1367 _376_
*1368 _377_
*1369 _378_
*1370 _379_
*1371 _380_
*1372 _381_
*1373 _382_
*1374 _383_
*1375 _384_
*1376 _385_
*1377 _386_
*1378 _387_
*1379 _388_
*1380 _389_
*1381 _390_
*1382 _391_
*1383 _392_
*1384 _393_
*1385 _394_
*1386 _395_
*1387 _396_
*1388 _397_
*1389 _398_
*1390 _399_
*1391 _400_
*1392 _401_
*1393 _402_
*1394 _403_
*1395 _404_
*1396 _405_
*1397 _406_
*1398 _407_
*1399 _408_
*1400 _409_
*1401 _410_
*1402 _411_
*1403 _412_
*1404 _413_
*1405 _414_
*1406 _415_
*1407 _416_
*1408 _417_
*1409 _418_
*1410 _419_
*1411 _420_
*1412 _421_
*1413 _422_
*1414 _423_
*1415 _424_
*1416 _425_
*1417 _426_
*1418 _427_
*1419 _428_
*1420 _429_
*1421 _430_
*1422 _431_
*1423 _432_
*1424 _433_
*1425 _434_
*1426 _435_
*1427 _436_
*1428 _437_
*1429 _438_
*1430 _439_
*1431 _440_
*1432 _441_
*1433 _442_
*1434 _443_
*1435 _444_
*1436 _445_
*1437 _446_
*1438 _447_
*1439 _448_
*1440 _449_
*1441 _450_
*1442 _451_
*1443 _452_
*1444 _453_
*1445 _454_
*1446 _455_
*1447 _456_
*1448 _457_
*1449 _458_
*1450 _459_
*1451 _460_
*1452 _461_
*1453 _462_
*1454 _463_
*1455 _464_
*1456 _465_
*1457 _466_
*1458 _467_
*1459 _468_
*1460 _469_
*1461 _470_
*1462 _471_
*1463 _472_
*1464 _473_
*1465 _474_
*1466 _475_
*1467 _476_
*1468 _477_
*1469 _478_
*1470 _479_
*1471 _480_
*1472 _481_
*1473 _482_
*1474 _483_
*1475 _484_
*1476 _485_
*1477 _486_
*1478 _487_
*1479 _488_
*1480 _489_
*1481 _490_
*1482 _491_
*1483 _492_
*1484 _493_
*1485 _494_
*1486 _495_
*1487 _496_
*1488 _497_
*1489 _498_
*1490 _499_
*1491 _500_
*1492 _501_
*1493 _502_
*1494 _503_
*1495 _504_
*1496 _505_
*1497 _506_
*1498 _507_
*1499 _508_
*1500 _509_
*1501 _510_
*1502 _511_
*1503 _512_
*1504 _513_
*1505 _514_
*1506 _515_
*1507 _516_
*1508 _517_
*1509 _518_
*1510 _519_
*1511 _520_
*1512 _521_
*1513 _522_
*1514 _523_
*1515 _524_
*1516 _525_
*1517 _526_
*1518 _527_
*1519 _528_
*1520 _529_
*1521 _530_
*1522 _531_
*1523 _532_
*1524 _533_
*1525 _534_
*1526 _535_
*1527 _536_
*1528 _537_
*1529 _538_
*1530 _539_
*1531 _540_
*1532 _541_
*1533 _542_
*1534 _543_
*1535 _544_
*1536 _545_
*1537 _546_
*1538 _547_
*1539 _548_
*1540 _549_
*1541 _550_
*1542 _551_
*1543 _552_
*1544 _553_
*1545 clkbuf_0_CIRCUIT_0\.int_memory_1\.GATES_12\.result
*1546 clkbuf_0_CIRCUIT_0\.int_memory_1\.GATES_13\.result
*1547 clkbuf_0_CIRCUIT_0\.int_memory_1\.GATES_14\.result
*1548 clkbuf_0_CIRCUIT_0\.int_memory_1\.GATES_15\.result
*1549 clkbuf_0_CIRCUIT_0\.int_memory_1\.GATES_16\.result
*1550 clkbuf_0_CIRCUIT_0\.int_memory_1\.GATES_17\.result
*1551 clkbuf_0__045_
*1552 clkbuf_0__046_
*1553 clkbuf_0__063_
*1554 clkbuf_0__220_
*1555 clkbuf_0__222_
*1556 clkbuf_0_io_in\[0\]
*1557 clkbuf_1_0__f_CIRCUIT_0\.int_memory_1\.GATES_12\.result
*1558 clkbuf_1_0__f_CIRCUIT_0\.int_memory_1\.GATES_13\.result
*1559 clkbuf_1_0__f_CIRCUIT_0\.int_memory_1\.GATES_14\.result
*1560 clkbuf_1_0__f_CIRCUIT_0\.int_memory_1\.GATES_15\.result
*1561 clkbuf_1_0__f_CIRCUIT_0\.int_memory_1\.GATES_16\.result
*1562 clkbuf_1_0__f_CIRCUIT_0\.int_memory_1\.GATES_17\.result
*1563 clkbuf_1_0__f__045_
*1564 clkbuf_1_0__f__046_
*1565 clkbuf_1_0__f__063_
*1566 clkbuf_1_0__f__220_
*1567 clkbuf_1_0__f__222_
*1568 clkbuf_1_0__f_io_in\[0\]
*1569 clkbuf_1_1__f_CIRCUIT_0\.int_memory_1\.GATES_12\.result
*1570 clkbuf_1_1__f_CIRCUIT_0\.int_memory_1\.GATES_13\.result
*1571 clkbuf_1_1__f_CIRCUIT_0\.int_memory_1\.GATES_14\.result
*1572 clkbuf_1_1__f_CIRCUIT_0\.int_memory_1\.GATES_15\.result
*1573 clkbuf_1_1__f_CIRCUIT_0\.int_memory_1\.GATES_16\.result
*1574 clkbuf_1_1__f_CIRCUIT_0\.int_memory_1\.GATES_17\.result
*1575 clkbuf_1_1__f__045_
*1576 clkbuf_1_1__f__046_
*1577 clkbuf_1_1__f__063_
*1578 clkbuf_1_1__f__220_
*1579 clkbuf_1_1__f__222_
*1580 clkbuf_1_1__f_io_in\[0\]
*1581 input1
*1582 input2
*1583 input3
*1584 input4
*1585 input5
*1586 input6
*1587 input7
*1588 repeater8

*PORTS
io_in[0] I
io_in[1] I
io_in[2] I
io_in[3] I
io_in[4] I
io_in[5] I
io_in[6] I
io_in[7] I
io_out[0] O
io_out[1] O
io_out[2] O
io_out[3] O
io_out[4] O
io_out[5] O
io_out[6] O
io_out[7] O

*D_NET *1 0.00512949
*CONN
*P io_in[0] I
*I *1556:A I *D sky130_fd_sc_hd__clkbuf_16
*CAP
1 io_in[0] 0.00256475
2 *1556:A 0.00256475
3 *1556:A *1228:A2 0
4 *1556:A *1345:A1 0
5 *1556:A *1351:A_N 0
6 *1556:A *1418:A3 0
7 *1556:A *1495:D 0
8 *1556:A *1580:A 0
9 *1556:A *80:36 0
10 *1556:A *87:44 0
11 *1556:A *179:24 0
12 *1556:A *201:11 0
13 *1556:A *286:29 0
14 *1556:A *288:14 0
15 *1556:A *353:8 0
16 *1556:A *379:16 0
*RES
1 io_in[0] *1556:A 26.0468 
*END

*D_NET *2 0.0113623
*CONN
*P io_in[1] I
*I *1581:A I *D sky130_fd_sc_hd__clkbuf_1
*I *386:DIODE I *D sky130_fd_sc_hd__diode_2
*CAP
1 io_in[1] 0.000212402
2 *1581:A 0.00011829
3 *386:DIODE 0
4 *2:21 0.00246817
5 *2:12 0.00535048
6 *2:11 0.00321301
7 *1581:A *1444:A1 0
8 *1581:A *139:22 0
9 *1581:A *254:19 0
10 *2:11 *3:34 0
11 *2:12 *6:10 0
12 *2:12 *61:10 0
13 *2:12 *181:18 0
14 *2:12 *322:28 0
15 *2:21 io_out[3] 0
16 *2:21 io_out[4] 0
17 *2:21 *1279:A1 0
18 *2:21 *1308:A 0
19 *2:21 *1482:D 0
20 *2:21 *1529:RESET_B 0
21 *2:21 *1551:A 0
22 *2:21 *34:23 0
23 *2:21 *72:28 0
24 *2:21 *77:55 0
25 *2:21 *214:101 0
26 *2:21 *227:40 0
27 *2:21 *227:47 0
28 *2:21 *254:19 0
29 *2:21 *294:15 0
30 *2:21 *305:23 0
31 *2:21 *383:35 0
*RES
1 io_in[1] *2:11 1.20427 
2 *2:11 *2:12 57.225 
3 *2:12 *2:21 14.6287 