* NGSPICE file created from tholin_avalonsemi_5401.ext - technology: sky130A

* Black-box entry subcircuit for sky130_fd_sc_hd__tapvpwrvgnd_1 abstract view
.subckt sky130_fd_sc_hd__tapvpwrvgnd_1 VGND VPWR
.ends

* Black-box entry subcircuit for sky130_fd_sc_hd__decap_4 abstract view
.subckt sky130_fd_sc_hd__decap_4 VGND VNB VPB VPWR
.ends

* Black-box entry subcircuit for sky130_fd_sc_hd__dfxtp_1 abstract view
.subckt sky130_fd_sc_hd__dfxtp_1 CLK D VGND VNB VPB VPWR Q
.ends

* Black-box entry subcircuit for sky130_fd_sc_hd__a21o_1 abstract view
.subckt sky130_fd_sc_hd__a21o_1 A1 A2 B1 VGND VNB VPB VPWR X
.ends

* Black-box entry subcircuit for sky130_fd_sc_hd__mux4_1 abstract view
.subckt sky130_fd_sc_hd__mux4_1 A0 A1 A2 A3 S0 S1 VGND VNB VPB VPWR X
.ends

* Black-box entry subcircuit for sky130_fd_sc_hd__fill_2 abstract view
.subckt sky130_fd_sc_hd__fill_2 VGND VNB VPB VPWR
.ends

* Black-box entry subcircuit for sky130_fd_sc_hd__a21oi_1 abstract view
.subckt sky130_fd_sc_hd__a21oi_1 A1 A2 B1 VGND VNB VPB VPWR Y
.ends

* Black-box entry subcircuit for sky130_fd_sc_hd__decap_8 abstract view
.subckt sky130_fd_sc_hd__decap_8 VGND VNB VPB VPWR
.ends

* Black-box entry subcircuit for sky130_fd_sc_hd__clkbuf_1 abstract view
.subckt sky130_fd_sc_hd__clkbuf_1 A VGND VNB VPB VPWR X
.ends

* Black-box entry subcircuit for sky130_fd_sc_hd__o31a_1 abstract view
.subckt sky130_fd_sc_hd__o31a_1 A1 A2 A3 B1 VGND VNB VPB VPWR X
.ends

* Black-box entry subcircuit for sky130_fd_sc_hd__buf_1 abstract view
.subckt sky130_fd_sc_hd__buf_1 A VGND VNB VPB VPWR X
.ends

* Black-box entry subcircuit for sky130_fd_sc_hd__xnor2_1 abstract view
.subckt sky130_fd_sc_hd__xnor2_1 A B VGND VNB VPB VPWR Y
.ends

* Black-box entry subcircuit for sky130_fd_sc_hd__fill_1 abstract view
.subckt sky130_fd_sc_hd__fill_1 VGND VNB VPB VPWR
.ends

* Black-box entry subcircuit for sky130_ef_sc_hd__decap_12 abstract view
.subckt sky130_ef_sc_hd__decap_12 VGND VPWR VPB VNB
.ends

* Black-box entry subcircuit for sky130_fd_sc_hd__decap_6 abstract view
.subckt sky130_fd_sc_hd__decap_6 VGND VNB VPB VPWR
.ends

* Black-box entry subcircuit for sky130_fd_sc_hd__clkbuf_16 abstract view
.subckt sky130_fd_sc_hd__clkbuf_16 A VGND VNB VPB VPWR X
.ends

* Black-box entry subcircuit for sky130_fd_sc_hd__diode_2 abstract view
.subckt sky130_fd_sc_hd__diode_2 DIODE VGND VNB VPB VPWR
.ends

* Black-box entry subcircuit for sky130_fd_sc_hd__dlymetal6s2s_1 abstract view
.subckt sky130_fd_sc_hd__dlymetal6s2s_1 A VGND VNB VPB VPWR X
.ends

* Black-box entry subcircuit for sky130_fd_sc_hd__mux2_1 abstract view
.subckt sky130_fd_sc_hd__mux2_1 A0 A1 S VGND VNB VPB VPWR X
.ends

* Black-box entry subcircuit for sky130_fd_sc_hd__a22o_1 abstract view
.subckt sky130_fd_sc_hd__a22o_1 A1 A2 B1 B2 VGND VNB VPB VPWR X
.ends

* Black-box entry subcircuit for sky130_fd_sc_hd__and3_1 abstract view
.subckt sky130_fd_sc_hd__and3_1 A B C VGND VNB VPB VPWR X
.ends

* Black-box entry subcircuit for sky130_fd_sc_hd__and3_2 abstract view
.subckt sky130_fd_sc_hd__and3_2 A B C VGND VNB VPB VPWR X
.ends

* Black-box entry subcircuit for sky130_fd_sc_hd__and2b_1 abstract view
.subckt sky130_fd_sc_hd__and2b_1 A_N B VGND VNB VPB VPWR X
.ends

* Black-box entry subcircuit for sky130_fd_sc_hd__decap_3 abstract view
.subckt sky130_fd_sc_hd__decap_3 VGND VNB VPB VPWR
.ends

* Black-box entry subcircuit for sky130_fd_sc_hd__nand2_1 abstract view
.subckt sky130_fd_sc_hd__nand2_1 A B VGND VNB VPB VPWR Y
.ends

* Black-box entry subcircuit for sky130_fd_sc_hd__nor2_1 abstract view
.subckt sky130_fd_sc_hd__nor2_1 A B VGND VNB VPB VPWR Y
.ends

* Black-box entry subcircuit for sky130_fd_sc_hd__and3b_1 abstract view
.subckt sky130_fd_sc_hd__and3b_1 A_N B C VGND VNB VPB VPWR X
.ends

* Black-box entry subcircuit for sky130_fd_sc_hd__or3_1 abstract view
.subckt sky130_fd_sc_hd__or3_1 A B C VGND VNB VPB VPWR X
.ends

* Black-box entry subcircuit for sky130_fd_sc_hd__and2_1 abstract view
.subckt sky130_fd_sc_hd__and2_1 A B VGND VNB VPB VPWR X
.ends

* Black-box entry subcircuit for sky130_fd_sc_hd__clkbuf_2 abstract view
.subckt sky130_fd_sc_hd__clkbuf_2 A VGND VNB VPB VPWR X
.ends

* Black-box entry subcircuit for sky130_fd_sc_hd__nor3_1 abstract view
.subckt sky130_fd_sc_hd__nor3_1 A B C VGND VNB VPB VPWR Y
.ends

* Black-box entry subcircuit for sky130_fd_sc_hd__and4_1 abstract view
.subckt sky130_fd_sc_hd__and4_1 A B C D VGND VNB VPB VPWR X
.ends

* Black-box entry subcircuit for sky130_fd_sc_hd__inv_2 abstract view
.subckt sky130_fd_sc_hd__inv_2 A VGND VNB VPB VPWR Y
.ends

* Black-box entry subcircuit for sky130_fd_sc_hd__nand2_2 abstract view
.subckt sky130_fd_sc_hd__nand2_2 A B VGND VNB VPB VPWR Y
.ends

* Black-box entry subcircuit for sky130_fd_sc_hd__nor3b_2 abstract view
.subckt sky130_fd_sc_hd__nor3b_2 A B C_N VGND VNB VPB VPWR Y
.ends

* Black-box entry subcircuit for sky130_fd_sc_hd__or2_1 abstract view
.subckt sky130_fd_sc_hd__or2_1 A B VGND VNB VPB VPWR X
.ends

* Black-box entry subcircuit for sky130_fd_sc_hd__dfrtp_1 abstract view
.subckt sky130_fd_sc_hd__dfrtp_1 CLK D RESET_B VGND VNB VPB VPWR Q
.ends

* Black-box entry subcircuit for sky130_fd_sc_hd__a31o_1 abstract view
.subckt sky130_fd_sc_hd__a31o_1 A1 A2 A3 B1 VGND VNB VPB VPWR X
.ends

* Black-box entry subcircuit for sky130_fd_sc_hd__clkinv_2 abstract view
.subckt sky130_fd_sc_hd__clkinv_2 A VGND VNB VPB VPWR Y
.ends

* Black-box entry subcircuit for sky130_fd_sc_hd__buf_2 abstract view
.subckt sky130_fd_sc_hd__buf_2 A VGND VNB VPB VPWR X
.ends

* Black-box entry subcircuit for sky130_fd_sc_hd__o21ai_1 abstract view
.subckt sky130_fd_sc_hd__o21ai_1 A1 A2 B1 VGND VNB VPB VPWR Y
.ends

* Black-box entry subcircuit for sky130_fd_sc_hd__or2b_1 abstract view
.subckt sky130_fd_sc_hd__or2b_1 A B_N VGND VNB VPB VPWR X
.ends

* Black-box entry subcircuit for sky130_fd_sc_hd__a311o_1 abstract view
.subckt sky130_fd_sc_hd__a311o_1 A1 A2 A3 B1 C1 VGND VNB VPB VPWR X
.ends

* Black-box entry subcircuit for sky130_fd_sc_hd__nand3_1 abstract view
.subckt sky130_fd_sc_hd__nand3_1 A B C VGND VNB VPB VPWR Y
.ends

* Black-box entry subcircuit for sky130_fd_sc_hd__a2bb2o_1 abstract view
.subckt sky130_fd_sc_hd__a2bb2o_1 A1_N A2_N B1 B2 VGND VNB VPB VPWR X
.ends

* Black-box entry subcircuit for sky130_fd_sc_hd__dfstp_1 abstract view
.subckt sky130_fd_sc_hd__dfstp_1 CLK D SET_B VGND VNB VPB VPWR Q
.ends

* Black-box entry subcircuit for sky130_fd_sc_hd__a221o_2 abstract view
.subckt sky130_fd_sc_hd__a221o_2 A1 A2 B1 B2 C1 VGND VNB VPB VPWR X
.ends

* Black-box entry subcircuit for sky130_fd_sc_hd__a22oi_2 abstract view
.subckt sky130_fd_sc_hd__a22oi_2 A1 A2 B1 B2 VGND VNB VPB VPWR Y
.ends

* Black-box entry subcircuit for sky130_fd_sc_hd__o21a_1 abstract view
.subckt sky130_fd_sc_hd__o21a_1 A1 A2 B1 VGND VNB VPB VPWR X
.ends

* Black-box entry subcircuit for sky130_fd_sc_hd__o31ai_1 abstract view
.subckt sky130_fd_sc_hd__o31ai_1 A1 A2 A3 B1 VGND VNB VPB VPWR Y
.ends

* Black-box entry subcircuit for sky130_fd_sc_hd__or3b_1 abstract view
.subckt sky130_fd_sc_hd__or3b_1 A B C_N VGND VNB VPB VPWR X
.ends

* Black-box entry subcircuit for sky130_fd_sc_hd__or4_1 abstract view
.subckt sky130_fd_sc_hd__or4_1 A B C D VGND VNB VPB VPWR X
.ends

* Black-box entry subcircuit for sky130_fd_sc_hd__nor3_2 abstract view
.subckt sky130_fd_sc_hd__nor3_2 A B C VGND VNB VPB VPWR Y
.ends

* Black-box entry subcircuit for sky130_fd_sc_hd__o221a_1 abstract view
.subckt sky130_fd_sc_hd__o221a_1 A1 A2 B1 B2 C1 VGND VNB VPB VPWR X
.ends

* Black-box entry subcircuit for sky130_fd_sc_hd__o21ba_1 abstract view
.subckt sky130_fd_sc_hd__o21ba_1 A1 A2 B1_N VGND VNB VPB VPWR X
.ends

* Black-box entry subcircuit for sky130_fd_sc_hd__and4b_1 abstract view
.subckt sky130_fd_sc_hd__and4b_1 A_N B C D VGND VNB VPB VPWR X
.ends

* Black-box entry subcircuit for sky130_fd_sc_hd__a221oi_4 abstract view
.subckt sky130_fd_sc_hd__a221oi_4 A1 A2 B1 B2 C1 VGND VNB VPB VPWR Y
.ends

.subckt tholin_avalonsemi_5401 io_in[0] io_in[1] io_in[2] io_in[3] io_in[4] io_in[5]
+ io_in[6] io_in[7] io_out[0] io_out[1] io_out[2] io_out[3] io_out[4] io_out[5] io_out[6]
+ io_out[7] vccd1 vssd1
XTAP_177 vssd1 vccd1 sky130_fd_sc_hd__tapvpwrvgnd_1
XFILLER_26_41 vssd1 vssd1 vccd1 vccd1 sky130_fd_sc_hd__decap_4
X_501_ _503_/CLK _501_/D vssd1 vssd1 vccd1 vccd1 _501_/Q sky130_fd_sc_hd__dfxtp_1
X_432_ _488_/Q _429_/X _431_/X vssd1 vssd1 vccd1 vccd1 _488_/D sky130_fd_sc_hd__a21o_1
X_294_ _521_/Q _529_/Q _393_/A _272_/B _247_/A _287_/X vssd1 vssd1 vccd1 vccd1 _295_/A
+ sky130_fd_sc_hd__mux4_1
XFILLER_13_155 vssd1 vssd1 vccd1 vccd1 sky130_fd_sc_hd__fill_2
XFILLER_3_12 vssd1 vssd1 vccd1 vccd1 sky130_fd_sc_hd__decap_4
X_363_ _359_/A _359_/B _359_/C vssd1 vssd1 vccd1 vccd1 _363_/Y sky130_fd_sc_hd__a21oi_1
XFILLER_9_104 vssd1 vssd1 vccd1 vccd1 sky130_fd_sc_hd__decap_8
X_415_ _415_/A vssd1 vssd1 vccd1 vccd1 _415_/X sky130_fd_sc_hd__clkbuf_1
X_346_ _343_/X _344_/X _345_/X _262_/A vssd1 vssd1 vccd1 vccd1 _346_/X sky130_fd_sc_hd__o31a_1
XFILLER_12_65 vssd1 vssd1 vccd1 vccd1 sky130_fd_sc_hd__decap_4
XFILLER_10_136 vssd1 vssd1 vccd1 vccd1 sky130_fd_sc_hd__decap_4
XFILLER_10_147 vssd1 vssd1 vccd1 vccd1 sky130_fd_sc_hd__decap_4
X_277_ _277_/A vssd1 vssd1 vccd1 vccd1 _277_/X sky130_fd_sc_hd__buf_1
XFILLER_5_151 vssd1 vssd1 vccd1 vccd1 sky130_fd_sc_hd__decap_8
XFILLER_0_24 vssd1 vssd1 vccd1 vccd1 sky130_fd_sc_hd__decap_4
XFILLER_2_110 vssd1 vssd1 vccd1 vccd1 sky130_fd_sc_hd__decap_4
X_329_ _329_/A _399_/C vssd1 vssd1 vccd1 vccd1 _368_/B sky130_fd_sc_hd__xnor2_1
XFILLER_9_55 vssd1 vssd1 vccd1 vccd1 sky130_fd_sc_hd__fill_1
XFILLER_38_139 vssd1 vssd1 vccd1 vccd1 sky130_fd_sc_hd__fill_1
XFILLER_34_85 vssd1 vccd1 vccd1 vssd1 sky130_ef_sc_hd__decap_12
XFILLER_37_161 vssd1 vssd1 vccd1 vccd1 sky130_fd_sc_hd__decap_6
XFILLER_29_96 vssd1 vssd1 vccd1 vccd1 sky130_fd_sc_hd__fill_2
XFILLER_29_74 vssd1 vssd1 vccd1 vccd1 sky130_fd_sc_hd__decap_4
XFILLER_29_52 vssd1 vssd1 vccd1 vccd1 sky130_fd_sc_hd__decap_4
Xclkbuf_0__045_ _225_/X vssd1 vssd1 vccd1 vccd1 clkbuf_0__045_/X sky130_fd_sc_hd__clkbuf_16
XFILLER_34_153 vssd1 vccd1 vccd1 vssd1 sky130_ef_sc_hd__decap_12
XFILLER_19_161 vssd1 vssd1 vccd1 vccd1 sky130_fd_sc_hd__decap_6
XFILLER_13_3 vssd1 vssd1 vccd1 vccd1 sky130_fd_sc_hd__fill_2
XANTENNA_5 _468_/A vssd1 vssd1 vccd1 vccd1 sky130_fd_sc_hd__diode_2
XFILLER_25_153 vssd1 vssd1 vccd1 vccd1 sky130_fd_sc_hd__decap_4
XFILLER_31_167 vssd1 vssd1 vccd1 vccd1 sky130_fd_sc_hd__fill_1
XTAP_178 vssd1 vccd1 sky130_fd_sc_hd__tapvpwrvgnd_1
XTAP_167 vssd1 vccd1 sky130_fd_sc_hd__tapvpwrvgnd_1
XTAP_156 vssd1 vccd1 sky130_fd_sc_hd__tapvpwrvgnd_1
XTAP_145 vssd1 vccd1 sky130_fd_sc_hd__tapvpwrvgnd_1
XFILLER_22_167 vssd1 vssd1 vccd1 vccd1 sky130_fd_sc_hd__fill_1
XTAP_134 vssd1 vccd1 sky130_fd_sc_hd__tapvpwrvgnd_1
XTAP_123 vssd1 vccd1 sky130_fd_sc_hd__tapvpwrvgnd_1
XTAP_112 vssd1 vccd1 sky130_fd_sc_hd__tapvpwrvgnd_1
XFILLER_7_8 vssd1 vssd1 vccd1 vccd1 sky130_fd_sc_hd__decap_4
XTAP_101 vssd1 vccd1 sky130_fd_sc_hd__tapvpwrvgnd_1
X_431_ _431_/A vssd1 vssd1 vccd1 vccd1 _431_/X sky130_fd_sc_hd__dlymetal6s2s_1
XFILLER_13_167 vssd1 vssd1 vccd1 vccd1 sky130_fd_sc_hd__fill_1
X_362_ _543_/Q _356_/A _362_/S vssd1 vssd1 vccd1 vccd1 _362_/X sky130_fd_sc_hd__mux2_1
X_293_ _540_/Q vssd1 vssd1 vccd1 vccd1 _393_/A sky130_fd_sc_hd__dlymetal6s2s_1
X_500_ _502_/CLK _500_/D vssd1 vssd1 vccd1 vccd1 _500_/Q sky130_fd_sc_hd__dfxtp_1
XFILLER_9_149 vssd1 vssd1 vccd1 vccd1 sky130_fd_sc_hd__decap_4
XFILLER_37_30 vssd1 vccd1 vccd1 vssd1 sky130_ef_sc_hd__decap_12
X_345_ _489_/Q _263_/B _273_/C _501_/Q vssd1 vssd1 vccd1 vccd1 _345_/X sky130_fd_sc_hd__a22o_1
X_414_ _414_/A _414_/B _414_/C vssd1 vssd1 vccd1 vccd1 _415_/A sky130_fd_sc_hd__and3_1
X_276_ _276_/A _279_/B _276_/C vssd1 vssd1 vccd1 vccd1 _277_/A sky130_fd_sc_hd__and3_2
X_259_ _545_/Q _534_/Q vssd1 vssd1 vccd1 vccd1 _342_/C sky130_fd_sc_hd__and2b_1
X_328_ _518_/D _323_/Y _311_/A _327_/X vssd1 vssd1 vccd1 vccd1 _399_/C sky130_fd_sc_hd__a22o_1
XFILLER_0_14 vssd1 vssd1 vccd1 vccd1 sky130_fd_sc_hd__decap_4
XFILLER_34_97 vssd1 vccd1 vccd1 vssd1 sky130_ef_sc_hd__decap_12
XFILLER_18_32 vssd1 vssd1 vccd1 vccd1 sky130_fd_sc_hd__decap_4
XFILLER_29_64 vssd1 vssd1 vccd1 vccd1 sky130_fd_sc_hd__decap_4
XFILLER_34_121 vssd1 vccd1 vccd1 vssd1 sky130_ef_sc_hd__decap_12
XFILLER_19_151 vssd1 vssd1 vccd1 vccd1 sky130_fd_sc_hd__decap_4
XFILLER_19_140 vssd1 vssd1 vccd1 vccd1 sky130_fd_sc_hd__decap_4
XFILLER_6_24 vssd1 vssd1 vccd1 vccd1 sky130_fd_sc_hd__decap_4
XANTENNA_6 _368_/B vssd1 vssd1 vccd1 vccd1 sky130_fd_sc_hd__diode_2
XFILLER_34_165 vssd1 vssd1 vccd1 vccd1 sky130_fd_sc_hd__decap_3
XFILLER_15_55 vssd1 vssd1 vccd1 vccd1 sky130_fd_sc_hd__fill_1
XFILLER_31_113 vssd1 vccd1 vccd1 vssd1 sky130_ef_sc_hd__decap_12
XFILLER_16_121 vssd1 vssd1 vccd1 vccd1 sky130_fd_sc_hd__decap_4
XTAP_179 vssd1 vccd1 sky130_fd_sc_hd__tapvpwrvgnd_1
XTAP_168 vssd1 vccd1 sky130_fd_sc_hd__tapvpwrvgnd_1
XTAP_157 vssd1 vccd1 sky130_fd_sc_hd__tapvpwrvgnd_1
XTAP_146 vssd1 vccd1 sky130_fd_sc_hd__tapvpwrvgnd_1
XTAP_135 vssd1 vccd1 sky130_fd_sc_hd__tapvpwrvgnd_1
XTAP_124 vssd1 vccd1 sky130_fd_sc_hd__tapvpwrvgnd_1
XTAP_113 vssd1 vccd1 sky130_fd_sc_hd__tapvpwrvgnd_1
XTAP_102 vssd1 vccd1 sky130_fd_sc_hd__tapvpwrvgnd_1
X_292_ _292_/A vssd1 vssd1 vccd1 vccd1 _547_/A sky130_fd_sc_hd__clkbuf_1
X_361_ _361_/A _425_/C vssd1 vssd1 vccd1 vccd1 _362_/S sky130_fd_sc_hd__nand2_1
X_430_ _430_/A _456_/A vssd1 vssd1 vccd1 vccd1 _431_/A sky130_fd_sc_hd__nor2_1
XFILLER_26_65 vssd1 vssd1 vccd1 vccd1 sky130_fd_sc_hd__decap_4
XFILLER_9_139 vssd1 vssd1 vccd1 vccd1 sky130_fd_sc_hd__decap_4
XFILLER_37_42 vssd1 vccd1 vccd1 vssd1 sky130_ef_sc_hd__decap_12
X_413_ _413_/A vssd1 vssd1 vccd1 vccd1 _413_/X sky130_fd_sc_hd__clkbuf_1
X_275_ _537_/Q _539_/Q _538_/Q vssd1 vssd1 vccd1 vccd1 _276_/C sky130_fd_sc_hd__and3b_1
XFILLER_5_164 vssd1 vssd1 vccd1 vccd1 sky130_fd_sc_hd__decap_4
X_344_ _505_/Q _276_/C _279_/C _509_/Q vssd1 vssd1 vccd1 vccd1 _344_/X sky130_fd_sc_hd__a22o_1
XFILLER_2_101 vssd1 vssd1 vccd1 vccd1 sky130_fd_sc_hd__decap_4
XFILLER_2_145 vssd1 vssd1 vccd1 vccd1 sky130_fd_sc_hd__decap_4
XFILLER_2_167 vssd1 vssd1 vccd1 vccd1 sky130_fd_sc_hd__fill_1
XFILLER_3_3 vssd1 vssd1 vccd1 vccd1 sky130_fd_sc_hd__fill_2
XFILLER_36_3 vssd1 vssd1 vccd1 vccd1 sky130_fd_sc_hd__fill_1
X_258_ _278_/A _278_/B _272_/B vssd1 vssd1 vccd1 vccd1 _342_/D sky130_fd_sc_hd__and3_1
X_327_ _327_/A _327_/B _327_/C vssd1 vssd1 vccd1 vccd1 _327_/X sky130_fd_sc_hd__or3_1
XFILLER_34_54 vssd1 vssd1 vccd1 vccd1 sky130_fd_sc_hd__decap_4
XFILLER_20_89 vssd1 vssd1 vccd1 vccd1 sky130_fd_sc_hd__decap_4
XFILLER_1_91 vssd1 vssd1 vccd1 vccd1 sky130_fd_sc_hd__decap_4
XANTENNA_7 _390_/B vssd1 vssd1 vccd1 vccd1 sky130_fd_sc_hd__diode_2
XFILLER_28_141 vssd1 vccd1 vccd1 vssd1 sky130_ef_sc_hd__decap_12
XFILLER_34_133 vssd1 vssd1 vccd1 vccd1 sky130_fd_sc_hd__decap_6
XFILLER_25_133 vssd1 vssd1 vccd1 vccd1 sky130_fd_sc_hd__decap_4
Xclkbuf_1_1__f_CIRCUIT_0.int_memory_1.GATES_13.result clkbuf_0_CIRCUIT_0.int_memory_1.GATES_13.result/X
+ vssd1 vssd1 vccd1 vccd1 _495_/CLK sky130_fd_sc_hd__clkbuf_16
XTAP_169 vssd1 vccd1 sky130_fd_sc_hd__tapvpwrvgnd_1
XFILLER_31_125 vssd1 vccd1 vccd1 vssd1 sky130_ef_sc_hd__decap_12
XTAP_158 vssd1 vccd1 sky130_fd_sc_hd__tapvpwrvgnd_1
XTAP_147 vssd1 vccd1 sky130_fd_sc_hd__tapvpwrvgnd_1
XFILLER_22_147 vssd1 vssd1 vccd1 vccd1 sky130_fd_sc_hd__decap_4
XTAP_136 vssd1 vccd1 sky130_fd_sc_hd__tapvpwrvgnd_1
XTAP_125 vssd1 vccd1 sky130_fd_sc_hd__tapvpwrvgnd_1
XTAP_114 vssd1 vccd1 sky130_fd_sc_hd__tapvpwrvgnd_1
XTAP_103 vssd1 vccd1 sky130_fd_sc_hd__tapvpwrvgnd_1
X_291_ _522_/Q _530_/Q _386_/A _278_/A _247_/A _287_/X vssd1 vssd1 vccd1 vccd1 _292_/A
+ sky130_fd_sc_hd__mux4_1
X_360_ _517_/Q _518_/Q vssd1 vssd1 vccd1 vccd1 _425_/C sky130_fd_sc_hd__and2b_1
XFILLER_9_129 vssd1 vssd1 vccd1 vccd1 sky130_fd_sc_hd__decap_4
X_489_ _491_/CLK _489_/D vssd1 vssd1 vccd1 vccd1 _489_/Q sky130_fd_sc_hd__dfxtp_1
XFILLER_12_24 vssd1 vssd1 vccd1 vccd1 sky130_fd_sc_hd__decap_4
XFILLER_38_7 vssd1 vssd1 vccd1 vccd1 sky130_fd_sc_hd__decap_4
XFILLER_37_54 vssd1 vssd1 vccd1 vccd1 sky130_fd_sc_hd__fill_2
X_412_ _412_/A _414_/C vssd1 vssd1 vccd1 vccd1 _413_/A sky130_fd_sc_hd__and2_1
X_274_ _274_/A vssd1 vssd1 vccd1 vccd1 _274_/X sky130_fd_sc_hd__buf_1
X_343_ _493_/Q _267_/C _270_/C _497_/Q vssd1 vssd1 vccd1 vccd1 _343_/X sky130_fd_sc_hd__a22o_1
XFILLER_5_143 vssd1 vssd1 vccd1 vccd1 sky130_fd_sc_hd__decap_4
XFILLER_23_45 vssd1 vssd1 vccd1 vccd1 sky130_fd_sc_hd__decap_4
XFILLER_23_12 vssd1 vssd1 vccd1 vccd1 sky130_fd_sc_hd__decap_4
X_257_ _537_/Q vssd1 vssd1 vccd1 vccd1 _272_/B sky130_fd_sc_hd__clkbuf_2
XFILLER_29_3 vssd1 vssd1 vccd1 vccd1 sky130_fd_sc_hd__decap_6
X_326_ _495_/Q _267_/C _270_/C _499_/Q vssd1 vssd1 vccd1 vccd1 _327_/C sky130_fd_sc_hd__a22o_1
XFILLER_9_25 vssd1 vssd1 vccd1 vccd1 sky130_fd_sc_hd__decap_4
XFILLER_34_33 vssd1 vssd1 vccd1 vccd1 sky130_fd_sc_hd__decap_4
XFILLER_18_56 vssd1 vssd1 vccd1 vccd1 sky130_fd_sc_hd__decap_4
XFILLER_38_109 vssd1 vccd1 vccd1 vssd1 sky130_ef_sc_hd__decap_12
X_309_ _309_/A vssd1 vssd1 vccd1 vccd1 _440_/B sky130_fd_sc_hd__clkbuf_1
XFILLER_20_24 vssd1 vssd1 vccd1 vccd1 sky130_fd_sc_hd__decap_4
XFILLER_1_81 vssd1 vssd1 vccd1 vccd1 sky130_fd_sc_hd__decap_4
XANTENNA_8 _414_/C vssd1 vssd1 vccd1 vccd1 sky130_fd_sc_hd__diode_2
XFILLER_28_153 vssd1 vccd1 vccd1 vssd1 sky130_ef_sc_hd__decap_12
XFILLER_31_78 vssd1 vssd1 vccd1 vccd1 sky130_fd_sc_hd__decap_4
XFILLER_31_45 vssd1 vssd1 vccd1 vccd1 sky130_fd_sc_hd__decap_4
XFILLER_31_137 vssd1 vccd1 vccd1 vssd1 sky130_ef_sc_hd__decap_12
XFILLER_31_104 vssd1 vssd1 vccd1 vccd1 sky130_fd_sc_hd__decap_8
XTAP_159 vssd1 vccd1 sky130_fd_sc_hd__tapvpwrvgnd_1
XTAP_148 vssd1 vccd1 sky130_fd_sc_hd__tapvpwrvgnd_1
XTAP_137 vssd1 vccd1 sky130_fd_sc_hd__tapvpwrvgnd_1
XTAP_126 vssd1 vccd1 sky130_fd_sc_hd__tapvpwrvgnd_1
XTAP_115 vssd1 vccd1 sky130_fd_sc_hd__tapvpwrvgnd_1
XTAP_104 vssd1 vccd1 sky130_fd_sc_hd__tapvpwrvgnd_1
XFILLER_11_3 vssd1 vssd1 vccd1 vccd1 sky130_fd_sc_hd__decap_4
XFILLER_26_78 vssd1 vssd1 vccd1 vccd1 sky130_fd_sc_hd__decap_6
XFILLER_26_34 vssd1 vssd1 vccd1 vccd1 sky130_fd_sc_hd__decap_4
XFILLER_13_104 vssd1 vssd1 vccd1 vccd1 sky130_fd_sc_hd__decap_8
X_290_ _541_/Q vssd1 vssd1 vccd1 vccd1 _386_/A sky130_fd_sc_hd__dlymetal6s2s_1
X_488_ _490_/CLK _488_/D vssd1 vssd1 vccd1 vccd1 _488_/Q sky130_fd_sc_hd__dfxtp_1
XFILLER_8_130 vssd1 vssd1 vccd1 vccd1 sky130_fd_sc_hd__decap_8
XFILLER_10_129 vssd1 vssd1 vccd1 vccd1 sky130_fd_sc_hd__decap_4
X_411_ _416_/A _416_/B _411_/C vssd1 vssd1 vccd1 vccd1 _411_/Y sky130_fd_sc_hd__nor3_1
X_342_ _536_/Q _342_/B _342_/C _342_/D vssd1 vssd1 vccd1 vccd1 _342_/X sky130_fd_sc_hd__and4_1
X_273_ _273_/A _279_/B _273_/C vssd1 vssd1 vccd1 vccd1 _274_/A sky130_fd_sc_hd__and3_2
XFILLER_23_57 vssd1 vssd1 vccd1 vccd1 sky130_fd_sc_hd__decap_6
XFILLER_2_136 vssd1 vssd1 vccd1 vccd1 sky130_fd_sc_hd__decap_4
X_256_ _539_/Q vssd1 vssd1 vccd1 vccd1 _278_/B sky130_fd_sc_hd__clkbuf_2
X_325_ _491_/Q _263_/B _279_/C _511_/Q vssd1 vssd1 vccd1 vccd1 _327_/B sky130_fd_sc_hd__a22o_1
XFILLER_18_24 vssd1 vssd1 vccd1 vccd1 sky130_fd_sc_hd__decap_4
X_239_ _245_/X vssd1 vssd1 vccd1 vccd1 _242_/B sky130_fd_sc_hd__inv_2
X_308_ _361_/A _329_/A _416_/C vssd1 vssd1 vccd1 vccd1 _309_/A sky130_fd_sc_hd__or3_1
XFILLER_29_89 vssd1 vssd1 vccd1 vccd1 sky130_fd_sc_hd__decap_4
XFILLER_29_45 vssd1 vssd1 vccd1 vccd1 sky130_fd_sc_hd__decap_4
XFILLER_28_165 vssd1 vssd1 vccd1 vccd1 sky130_fd_sc_hd__decap_3
XFILLER_20_58 vssd1 vssd1 vccd1 vccd1 sky130_fd_sc_hd__fill_2
XANTENNA_9 _410_/A vssd1 vssd1 vccd1 vccd1 sky130_fd_sc_hd__diode_2
Xclkbuf_1_0__f_CIRCUIT_0.int_memory_1.GATES_13.result clkbuf_0_CIRCUIT_0.int_memory_1.GATES_13.result/X
+ vssd1 vssd1 vccd1 vccd1 _494_/CLK sky130_fd_sc_hd__clkbuf_16
XFILLER_10_80 vssd1 vssd1 vccd1 vccd1 sky130_fd_sc_hd__decap_4
XFILLER_31_24 vssd1 vssd1 vccd1 vccd1 sky130_fd_sc_hd__decap_4
XFILLER_15_47 vssd1 vssd1 vccd1 vccd1 sky130_fd_sc_hd__decap_8
XFILLER_15_14 vssd1 vssd1 vccd1 vccd1 sky130_fd_sc_hd__fill_2
XFILLER_31_149 vssd1 vccd1 vccd1 vssd1 sky130_ef_sc_hd__decap_12
XTAP_149 vssd1 vccd1 sky130_fd_sc_hd__tapvpwrvgnd_1
XTAP_138 vssd1 vccd1 sky130_fd_sc_hd__tapvpwrvgnd_1
XTAP_127 vssd1 vccd1 sky130_fd_sc_hd__tapvpwrvgnd_1
XTAP_116 vssd1 vccd1 sky130_fd_sc_hd__tapvpwrvgnd_1
XTAP_105 vssd1 vccd1 sky130_fd_sc_hd__tapvpwrvgnd_1
XFILLER_8_164 vssd1 vssd1 vccd1 vccd1 sky130_fd_sc_hd__decap_4
X_487_ _487_/A _487_/B vssd1 vssd1 vccd1 vccd1 _487_/Y sky130_fd_sc_hd__nand2_2
XFILLER_37_23 vssd1 vssd1 vccd1 vccd1 sky130_fd_sc_hd__decap_4
X_410_ _410_/A vssd1 vssd1 vccd1 vccd1 _410_/X sky130_fd_sc_hd__clkbuf_1
X_272_ _278_/B _272_/B _538_/Q vssd1 vssd1 vccd1 vccd1 _273_/C sky130_fd_sc_hd__nor3b_2
X_341_ _398_/B _341_/B vssd1 vssd1 vccd1 vccd1 _367_/A sky130_fd_sc_hd__or2_1
X_539_ _416_/Y _539_/D _485_/Y vssd1 vssd1 vccd1 vccd1 _539_/Q sky130_fd_sc_hd__dfrtp_1
XFILLER_5_134 vssd1 vssd1 vccd1 vccd1 sky130_fd_sc_hd__decap_4
XFILLER_23_69 vssd1 vssd1 vccd1 vccd1 sky130_fd_sc_hd__decap_4
XFILLER_23_36 vssd1 vssd1 vccd1 vccd1 sky130_fd_sc_hd__decap_6
X_255_ _538_/Q vssd1 vssd1 vccd1 vccd1 _278_/A sky130_fd_sc_hd__clkbuf_2
X_324_ _503_/Q _273_/C _276_/C _507_/Q vssd1 vssd1 vccd1 vccd1 _327_/A sky130_fd_sc_hd__a22o_1
Xclkbuf_0_CIRCUIT_0.int_memory_1.GATES_16.result _277_/X vssd1 vssd1 vccd1 vccd1 clkbuf_0_CIRCUIT_0.int_memory_1.GATES_16.result/X
+ sky130_fd_sc_hd__clkbuf_16
XFILLER_9_49 vssd1 vssd1 vccd1 vccd1 sky130_fd_sc_hd__decap_6
XFILLER_34_24 vssd1 vssd1 vccd1 vccd1 sky130_fd_sc_hd__decap_4
XFILLER_1_3 vssd1 vssd1 vccd1 vccd1 sky130_fd_sc_hd__decap_3
X_307_ _307_/A vssd1 vssd1 vccd1 vccd1 _550_/A sky130_fd_sc_hd__clkbuf_1
XFILLER_37_111 vssd1 vssd1 vccd1 vccd1 sky130_fd_sc_hd__fill_1
XFILLER_34_3 vssd1 vssd1 vccd1 vccd1 sky130_fd_sc_hd__decap_3
X_238_ _242_/B _235_/X _237_/X vssd1 vssd1 vccd1 vccd1 _409_/B sky130_fd_sc_hd__a21o_1
XFILLER_1_61 vssd1 vssd1 vccd1 vccd1 sky130_fd_sc_hd__decap_4
XFILLER_6_39 vssd1 vssd1 vccd1 vccd1 sky130_fd_sc_hd__decap_6
XFILLER_16_136 vssd1 vssd1 vccd1 vccd1 sky130_fd_sc_hd__decap_4
XFILLER_16_125 vssd1 vssd1 vccd1 vccd1 sky130_fd_sc_hd__fill_1
XTAP_139 vssd1 vccd1 sky130_fd_sc_hd__tapvpwrvgnd_1
XFILLER_22_139 vssd1 vssd1 vccd1 vccd1 sky130_fd_sc_hd__fill_1
XTAP_128 vssd1 vccd1 sky130_fd_sc_hd__tapvpwrvgnd_1
XTAP_117 vssd1 vccd1 sky130_fd_sc_hd__tapvpwrvgnd_1
XPHY_0 vssd1 vssd1 vccd1 vccd1 sky130_fd_sc_hd__decap_3
XTAP_106 vssd1 vccd1 sky130_fd_sc_hd__tapvpwrvgnd_1
XFILLER_16_80 vssd1 vssd1 vccd1 vccd1 sky130_fd_sc_hd__decap_4
X_486_ _487_/A _486_/B vssd1 vssd1 vccd1 vccd1 _486_/Y sky130_fd_sc_hd__nand2_2
XFILLER_37_57 vssd1 vccd1 vccd1 vssd1 sky130_ef_sc_hd__decap_12
XFILLER_10_109 vssd1 vssd1 vccd1 vccd1 sky130_fd_sc_hd__decap_4
X_271_ _271_/A vssd1 vssd1 vccd1 vccd1 _271_/X sky130_fd_sc_hd__buf_1
X_538_ _416_/Y _538_/D _484_/Y vssd1 vssd1 vccd1 vccd1 _538_/Q sky130_fd_sc_hd__dfrtp_1
X_340_ _338_/C _340_/B vssd1 vssd1 vccd1 vccd1 _341_/B sky130_fd_sc_hd__and2b_1
X_469_ _470_/A _469_/B vssd1 vssd1 vccd1 vccd1 _469_/Y sky130_fd_sc_hd__nand2_2
X_254_ _538_/Q _539_/Q _537_/Q vssd1 vssd1 vccd1 vccd1 _263_/B sky130_fd_sc_hd__and3b_1
X_323_ _342_/B _342_/C vssd1 vssd1 vccd1 vccd1 _323_/Y sky130_fd_sc_hd__nand2_2
XFILLER_34_47 vssd1 vssd1 vccd1 vccd1 sky130_fd_sc_hd__decap_4
X_306_ _304_/Y _305_/X _512_/D vssd1 vssd1 vccd1 vccd1 _307_/A sky130_fd_sc_hd__mux2_1
X_237_ _414_/A _409_/B _244_/B _478_/A vssd1 vssd1 vccd1 vccd1 _237_/X sky130_fd_sc_hd__a31o_1
XFILLER_37_167 vssd1 vssd1 vccd1 vccd1 sky130_fd_sc_hd__fill_1
XFILLER_29_25 vssd1 vssd1 vccd1 vccd1 sky130_fd_sc_hd__decap_4
XFILLER_19_167 vssd1 vssd1 vccd1 vccd1 sky130_fd_sc_hd__fill_1
XFILLER_25_148 vssd1 vssd1 vccd1 vccd1 sky130_fd_sc_hd__fill_2
XFILLER_25_126 vssd1 vssd1 vccd1 vccd1 sky130_fd_sc_hd__decap_4
XTAP_129 vssd1 vccd1 sky130_fd_sc_hd__tapvpwrvgnd_1
XTAP_118 vssd1 vccd1 sky130_fd_sc_hd__tapvpwrvgnd_1
XPHY_1 vssd1 vssd1 vccd1 vccd1 sky130_fd_sc_hd__decap_3
XTAP_107 vssd1 vccd1 sky130_fd_sc_hd__tapvpwrvgnd_1
XFILLER_21_151 vssd1 vssd1 vccd1 vccd1 sky130_fd_sc_hd__fill_1
XFILLER_13_129 vssd1 vssd1 vccd1 vccd1 sky130_fd_sc_hd__decap_4
XFILLER_7_94 vssd1 vssd1 vccd1 vccd1 sky130_fd_sc_hd__decap_4
XFILLER_8_155 vssd1 vssd1 vccd1 vccd1 sky130_fd_sc_hd__decap_4
X_485_ _487_/A _486_/B vssd1 vssd1 vccd1 vccd1 _485_/Y sky130_fd_sc_hd__nand2_2
XFILLER_12_39 vssd1 vssd1 vccd1 vccd1 sky130_fd_sc_hd__decap_6
XFILLER_37_69 vssd1 vccd1 vccd1 vssd1 sky130_ef_sc_hd__decap_12
X_270_ _479_/A _279_/B _270_/C vssd1 vssd1 vccd1 vccd1 _271_/A sky130_fd_sc_hd__and3_2
X_537_ _416_/Y _537_/D _483_/Y vssd1 vssd1 vccd1 vccd1 _537_/Q sky130_fd_sc_hd__dfrtp_1
X_399_ _399_/A _439_/A _399_/C vssd1 vssd1 vccd1 vccd1 _399_/X sky130_fd_sc_hd__and3_1
X_468_ _468_/A vssd1 vssd1 vccd1 vccd1 _468_/Y sky130_fd_sc_hd__clkinv_2
X_322_ _439_/A _358_/B vssd1 vssd1 vccd1 vccd1 _368_/A sky130_fd_sc_hd__and2_1
XFILLER_2_128 vssd1 vssd1 vccd1 vccd1 sky130_fd_sc_hd__decap_4
XFILLER_36_8 vssd1 vssd1 vccd1 vccd1 sky130_fd_sc_hd__decap_4
X_253_ _279_/A vssd1 vssd1 vccd1 vccd1 _253_/X sky130_fd_sc_hd__buf_1
XFILLER_34_15 vssd1 vssd1 vccd1 vccd1 sky130_fd_sc_hd__decap_4
X_236_ _412_/A vssd1 vssd1 vccd1 vccd1 _414_/A sky130_fd_sc_hd__inv_2
XFILLER_24_70 vssd1 vssd1 vccd1 vccd1 sky130_fd_sc_hd__decap_4
X_305_ _527_/Q _535_/Q _318_/S vssd1 vssd1 vccd1 vccd1 _305_/X sky130_fd_sc_hd__mux2_1
XFILLER_37_113 vssd1 vccd1 vccd1 vssd1 sky130_ef_sc_hd__decap_12
XFILLER_1_52 vssd1 vssd1 vccd1 vccd1 sky130_fd_sc_hd__decap_4
XFILLER_15_39 vssd1 vssd1 vccd1 vccd1 sky130_fd_sc_hd__decap_4
XFILLER_21_93 vssd1 vssd1 vccd1 vccd1 sky130_fd_sc_hd__decap_4
XTAP_119 vssd1 vccd1 sky130_fd_sc_hd__tapvpwrvgnd_1
XPHY_2 vssd1 vssd1 vccd1 vccd1 sky130_fd_sc_hd__decap_3
XTAP_108 vssd1 vccd1 sky130_fd_sc_hd__tapvpwrvgnd_1
XFILLER_11_7 vssd1 vssd1 vccd1 vccd1 sky130_fd_sc_hd__fill_1
XFILLER_30_141 vssd1 vccd1 vccd1 vssd1 sky130_ef_sc_hd__decap_12
XFILLER_26_27 vssd1 vssd1 vccd1 vccd1 sky130_fd_sc_hd__fill_1
X_553_ _553_/A vssd1 vssd1 vccd1 vccd1 io_out[7] sky130_fd_sc_hd__buf_2
X_484_ _484_/A _484_/B vssd1 vssd1 vccd1 vccd1 _484_/Y sky130_fd_sc_hd__nand2_2
XFILLER_8_123 vssd1 vssd1 vccd1 vccd1 sky130_fd_sc_hd__fill_2
XFILLER_5_159 vssd1 vssd1 vccd1 vccd1 sky130_fd_sc_hd__fill_1
XFILLER_27_81 vssd1 vssd1 vccd1 vccd1 sky130_fd_sc_hd__decap_8
X_536_ _416_/Y _536_/D _482_/Y vssd1 vssd1 vccd1 vccd1 _536_/Q sky130_fd_sc_hd__dfrtp_1
X_467_ _470_/A _469_/B vssd1 vssd1 vccd1 vccd1 _467_/Y sky130_fd_sc_hd__nand2_2
X_398_ _398_/A _398_/B _398_/C vssd1 vssd1 vccd1 vccd1 _398_/X sky130_fd_sc_hd__or3_1
X_252_ _408_/C _252_/B vssd1 vssd1 vccd1 vccd1 _519_/D sky130_fd_sc_hd__nor2_1
XFILLER_13_83 vssd1 vssd1 vccd1 vccd1 sky130_fd_sc_hd__fill_1
X_321_ _516_/Q _515_/Q _416_/C vssd1 vssd1 vccd1 vccd1 _358_/B sky130_fd_sc_hd__or3_1
X_519_ _276_/A _519_/D _475_/Y vssd1 vssd1 vccd1 vccd1 _519_/Q sky130_fd_sc_hd__dfrtp_1
X_304_ _416_/C _411_/C _416_/B vssd1 vssd1 vccd1 vccd1 _304_/Y sky130_fd_sc_hd__a21oi_1
X_235_ _412_/A _244_/B _409_/B vssd1 vssd1 vccd1 vccd1 _235_/X sky130_fd_sc_hd__a21o_1
XFILLER_37_125 vssd1 vccd1 vccd1 vssd1 sky130_ef_sc_hd__decap_12
XFILLER_10_73 vssd1 vssd1 vccd1 vccd1 sky130_fd_sc_hd__fill_2
XFILLER_35_81 vssd1 vccd1 vccd1 vssd1 sky130_ef_sc_hd__decap_12
XFILLER_34_139 vssd1 vssd1 vccd1 vccd1 sky130_fd_sc_hd__fill_1
XFILLER_32_3 vssd1 vssd1 vccd1 vccd1 sky130_fd_sc_hd__fill_2
XFILLER_33_161 vssd1 vssd1 vccd1 vccd1 sky130_fd_sc_hd__decap_6
XFILLER_31_28 vssd1 vssd1 vccd1 vccd1 sky130_fd_sc_hd__fill_1
XFILLER_25_106 vssd1 vssd1 vccd1 vccd1 sky130_fd_sc_hd__decap_6
XTAP_109 vssd1 vccd1 sky130_fd_sc_hd__tapvpwrvgnd_1
XFILLER_30_153 vssd1 vccd1 vccd1 vssd1 sky130_ef_sc_hd__decap_12
XFILLER_30_131 vssd1 vssd1 vccd1 vccd1 sky130_fd_sc_hd__decap_8
XFILLER_22_109 vssd1 vssd1 vccd1 vccd1 sky130_fd_sc_hd__decap_4
XPHY_3 vssd1 vssd1 vccd1 vccd1 sky130_fd_sc_hd__decap_3
XFILLER_7_52 vssd1 vssd1 vccd1 vccd1 sky130_fd_sc_hd__decap_4
X_552_ _552_/A vssd1 vssd1 vccd1 vccd1 io_out[6] sky130_fd_sc_hd__buf_2
X_483_ _484_/A _483_/B vssd1 vssd1 vccd1 vccd1 _483_/Y sky130_fd_sc_hd__nand2_2
XFILLER_32_60 vssd1 vssd1 vccd1 vccd1 sky130_fd_sc_hd__decap_4
XFILLER_8_146 vssd1 vssd1 vccd1 vccd1 sky130_fd_sc_hd__decap_4
XFILLER_37_16 vssd1 vssd1 vccd1 vccd1 sky130_fd_sc_hd__decap_4
XFILLER_5_127 vssd1 vssd1 vccd1 vccd1 sky130_fd_sc_hd__fill_2
Xclkbuf_0_io_in[0] io_in[0] vssd1 vssd1 vccd1 vccd1 clkbuf_0_io_in[0]/X sky130_fd_sc_hd__clkbuf_16
Xclkbuf_1_1__f_CIRCUIT_0.int_memory_1.GATES_14.result clkbuf_0_CIRCUIT_0.int_memory_1.GATES_14.result/X
+ vssd1 vssd1 vccd1 vccd1 _499_/CLK sky130_fd_sc_hd__clkbuf_16
X_535_ _411_/Y _539_/D _481_/Y vssd1 vssd1 vccd1 vccd1 _535_/Q sky130_fd_sc_hd__dfrtp_1
X_466_ _470_/A _470_/B vssd1 vssd1 vccd1 vccd1 _466_/Y sky130_fd_sc_hd__nand2_2
X_397_ _398_/C _392_/X _396_/X vssd1 vssd1 vccd1 vccd1 _540_/D sky130_fd_sc_hd__o21ai_1
XFILLER_2_119 vssd1 vssd1 vccd1 vccd1 sky130_fd_sc_hd__decap_4
X_320_ _320_/A vssd1 vssd1 vccd1 vccd1 _553_/A sky130_fd_sc_hd__clkbuf_1
X_251_ _468_/A _425_/B vssd1 vssd1 vccd1 vccd1 _252_/B sky130_fd_sc_hd__nand2_1
XFILLER_1_152 vssd1 vssd1 vccd1 vccd1 sky130_fd_sc_hd__decap_4
X_449_ _497_/Q _444_/X _434_/X vssd1 vssd1 vccd1 vccd1 _497_/D sky130_fd_sc_hd__a21o_1
X_518_ _518_/CLK _518_/D _474_/Y vssd1 vssd1 vccd1 vccd1 _518_/Q sky130_fd_sc_hd__dfrtp_1
XFILLER_37_137 vssd1 vccd1 vccd1 vssd1 sky130_ef_sc_hd__decap_12
X_303_ _303_/A _405_/B vssd1 vssd1 vccd1 vccd1 _416_/B sky130_fd_sc_hd__nand2_1
XFILLER_24_50 vssd1 vssd1 vccd1 vccd1 sky130_fd_sc_hd__decap_4
X_234_ _416_/A _408_/C vssd1 vssd1 vccd1 vccd1 _244_/B sky130_fd_sc_hd__or2b_1
XFILLER_35_93 vssd1 vccd1 vccd1 vssd1 sky130_ef_sc_hd__decap_12
XFILLER_10_41 vssd1 vssd1 vccd1 vccd1 sky130_fd_sc_hd__decap_4
XFILLER_24_151 vssd1 vssd1 vccd1 vccd1 sky130_fd_sc_hd__decap_4
XFILLER_30_165 vssd1 vssd1 vccd1 vccd1 sky130_fd_sc_hd__decap_3
XPHY_4 vssd1 vssd1 vccd1 vccd1 sky130_fd_sc_hd__decap_3
X_551_ _551_/A vssd1 vssd1 vccd1 vccd1 io_out[5] sky130_fd_sc_hd__buf_2
XFILLER_26_29 vssd1 vssd1 vccd1 vccd1 sky130_fd_sc_hd__fill_2
X_482_ _484_/A _484_/B vssd1 vssd1 vccd1 vccd1 _482_/Y sky130_fd_sc_hd__nand2_2