*SPEF "ieee 1481-1999"
*DESIGN "tholin_avalonsemi_5401"
*DATE "11:11:11 Fri 11 11, 1111"
*VENDOR "OpenRCX"
*PROGRAM "Parallel Extraction"
*VERSION "1.0"
*DESIGN_FLOW "NAME_SCOPE LOCAL" "PIN_CAP NONE"
*DIVIDER /
*DELIMITER :
*BUS_DELIMITER []
*T_UNIT 1 NS
*C_UNIT 1 PF
*R_UNIT 1 OHM
*L_UNIT 1 HENRY

*NAME_MAP
*1 io_in[0]
*2 io_in[1]
*3 io_in[2]
*4 io_in[3]
*5 io_in[4]
*6 io_in[5]
*7 io_in[6]
*8 io_in[7]
*9 io_out[0]
*10 io_out[1]
*11 io_out[2]
*12 io_out[3]
*13 io_out[4]
*14 io_out[5]
*15 io_out[6]
*16 io_out[7]
*19 CIRCUIT_0\.GATES_2\.result
*20 CIRCUIT_0\.GATES_20\.result
*21 CIRCUIT_0\.GATES_22\.result
*22 CIRCUIT_0\.GATES_23\.result
*23 CIRCUIT_0\.GATES_28\.result
*24 CIRCUIT_0\.GATES_3\.result
*25 CIRCUIT_0\.GATES_31\.result
*26 CIRCUIT_0\.GATES_32\.result
*27 CIRCUIT_0\.GATES_33\.result
*28 CIRCUIT_0\.GATES_34\.result
*29 CIRCUIT_0\.GATES_35\.result
*30 CIRCUIT_0\.GATES_36\.result
*31 CIRCUIT_0\.GATES_37\.result
*32 CIRCUIT_0\.MEMORY_40\.d
*33 CIRCUIT_0\.MEMORY_40\.s_currentState
*34 CIRCUIT_0\.MEMORY_41\.d
*35 CIRCUIT_0\.MEMORY_41\.s_currentState
*36 CIRCUIT_0\.MEMORY_42\.d
*37 CIRCUIT_0\.MEMORY_42\.s_currentState
*38 CIRCUIT_0\.MEMORY_43\.d
*39 CIRCUIT_0\.MEMORY_43\.s_currentState
*40 CIRCUIT_0\.MEMORY_44\.d
*41 CIRCUIT_0\.MEMORY_44\.s_currentState
*42 CIRCUIT_0\.MEMORY_45\.s_currentState
*43 CIRCUIT_0\.MEMORY_46\.s_currentState
*44 CIRCUIT_0\.MEMORY_47\.s_currentState
*45 CIRCUIT_0\.MEMORY_48\.s_currentState
*46 CIRCUIT_0\.MEMORY_49\.s_currentState
*47 CIRCUIT_0\.MEMORY_50\.s_currentState
*48 CIRCUIT_0\.MEMORY_51\.s_currentState
*49 CIRCUIT_0\.MEMORY_52\.s_currentState
*50 CIRCUIT_0\.MEMORY_53\.s_currentState
*51 CIRCUIT_0\.MEMORY_54\.s_currentState
*52 CIRCUIT_0\.MEMORY_55\.s_currentState
*53 CIRCUIT_0\.MEMORY_56\.s_currentState
*54 CIRCUIT_0\.MEMORY_57\.s_currentState
*55 CIRCUIT_0\.MEMORY_58\.s_currentState
*56 CIRCUIT_0\.MEMORY_59\.s_currentState
*57 CIRCUIT_0\.MEMORY_60\.s_currentState
*58 CIRCUIT_0\.MEMORY_61\.s_currentState
*59 CIRCUIT_0\.MEMORY_62\.s_currentState
*60 CIRCUIT_0\.MEMORY_63\.s_currentState
*61 CIRCUIT_0\.MEMORY_64\.s_currentState
*62 CIRCUIT_0\.MEMORY_65\.s_currentState
*63 CIRCUIT_0\.MEMORY_66\.d
*64 CIRCUIT_0\.MEMORY_66\.s_currentState
*65 CIRCUIT_0\.O_4_MAR
*66 CIRCUIT_0\.O_5_WRITE
*67 CIRCUIT_0\.O_6_JMP
*68 CIRCUIT_0\.O_7_I
*69 CIRCUIT_0\.O_D0_RR0
*70 CIRCUIT_0\.O_D1_RR1
*71 CIRCUIT_0\.O_D2_RR2
*72 CIRCUIT_0\.O_D3_RR3
*73 CIRCUIT_0\.clock_gen_1\.GATES_6\.result
*74 CIRCUIT_0\.clock_gen_1\.MEMORY_2\.s_currentState
*75 CIRCUIT_0\.clock_gen_1\.MEMORY_3\.s_currentState
*76 CIRCUIT_0\.clock_gen_1\.MEMORY_4\.s_currentState
*77 CIRCUIT_0\.clock_gen_1\.MEMORY_5\.s_currentState
*78 CIRCUIT_0\.clock_gen_1\.MEMORY_7\.s_currentState
*79 CIRCUIT_0\.clock_gen_1\.MEMORY_7\.s_nextState
*80 CIRCUIT_0\.dest_reg_sel_1\.GATES_1\.result
*81 CIRCUIT_0\.dest_reg_sel_1\.MEMORY_3\.s_currentState
*82 CIRCUIT_0\.dest_reg_sel_1\.MEMORY_4\.s_currentState
*83 CIRCUIT_0\.dest_reg_sel_1\.MEMORY_5\.s_currentState
*84 CIRCUIT_0\.inst_dec_1\.MEMORY_22\.s_currentState
*85 CIRCUIT_0\.inst_dec_1\.MEMORY_23\.s_currentState
*86 CIRCUIT_0\.inst_dec_1\.MEMORY_24\.s_currentState
*87 CIRCUIT_0\.inst_dec_1\.MEMORY_25\.s_currentState
*88 _000_
*89 _001_
*90 _002_
*91 _003_
*92 _004_
*93 _005_
*94 _006_
*95 _007_
*96 _008_
*97 _009_
*98 _010_
*99 _011_
*100 _012_
*101 _013_
*102 _014_
*103 _015_
*104 _016_
*105 _017_
*106 _018_
*107 _019_
*108 _020_
*109 _021_
*110 _022_
*111 _023_
*112 _024_
*113 _025_
*114 _026_
*115 _027_
*116 _028_
*117 _029_
*118 _030_
*119 _031_
*120 _032_
*121 _033_
*122 _034_
*123 _035_
*124 _036_
*125 _037_
*126 _038_
*127 _039_
*128 _040_
*129 _041_
*130 _042_
*131 _043_
*132 _044_
*133 _045_
*134 _046_
*135 _047_
*136 _048_
*137 _049_
*138 _050_
*139 _051_
*140 _052_
*141 _053_
*142 _054_
*143 _055_
*144 _056_
*145 _057_
*146 _058_
*147 _059_
*148 _060_
*149 _061_
*150 _062_
*151 _063_
*152 _064_
*153 _065_
*154 _066_
*155 _067_
*156 _068_
*157 _069_
*158 _070_
*159 _071_
*160 _072_
*161 _073_
*162 _074_
*163 _075_
*164 _076_
*165 _077_
*166 _078_
*167 _079_
*168 _080_
*169 _081_
*170 _082_
*171 _083_
*172 _084_
*173 _085_
*174 _086_
*175 _087_
*176 _088_
*177 _089_
*178 _090_
*179 _091_
*180 _092_
*181 _093_
*182 _094_
*183 _095_
*184 _096_
*185 _097_
*186 _098_
*187 _099_
*188 _100_
*189 _101_
*190 _102_
*191 _103_
*192 _104_
*193 _105_
*194 _106_
*195 _107_
*196 _108_
*197 _109_
*198 _110_
*199 _111_
*200 _112_
*201 _113_
*202 _114_
*203 net1
*204 net10
*205 net11
*206 net2
*207 net3
*208 net4
*209 net5
*210 net6
*211 net7
*212 net8
*213 net9
*214 FILLER_0_109
*215 FILLER_0_113
*216 FILLER_0_125
*217 FILLER_0_137
*218 FILLER_0_141
*219 FILLER_0_153
*220 FILLER_0_165
*221 FILLER_0_18
*222 FILLER_0_26
*223 FILLER_0_29
*224 FILLER_0_41
*225 FILLER_0_53
*226 FILLER_0_57
*227 FILLER_0_6
*228 FILLER_0_69
*229 FILLER_0_81
*230 FILLER_0_85
*231 FILLER_0_97
*232 FILLER_10_107
*233 FILLER_10_119
*234 FILLER_10_131
*235 FILLER_10_139
*236 FILLER_10_141
*237 FILLER_10_153
*238 FILLER_10_165
*239 FILLER_10_23
*240 FILLER_10_27
*241 FILLER_10_39
*242 FILLER_10_50
*243 FILLER_10_61
*244 FILLER_10_71
*245 FILLER_10_80
*246 FILLER_10_88
*247 FILLER_10_95
*248 FILLER_11_105
*249 FILLER_11_111
*250 FILLER_11_113
*251 FILLER_11_125
*252 FILLER_11_137
*253 FILLER_11_149
*254 FILLER_11_161
*255 FILLER_11_167
*256 FILLER_11_24
*257 FILLER_11_3
*258 FILLER_11_44
*259 FILLER_11_52
*260 FILLER_11_64
*261 FILLER_11_75
*262 FILLER_11_84
*263 FILLER_11_91
*264 FILLER_11_98
*265 FILLER_12_105
*266 FILLER_12_112
*267 FILLER_12_119
*268 FILLER_12_131
*269 FILLER_12_139
*270 FILLER_12_141
*271 FILLER_12_153
*272 FILLER_12_165
*273 FILLER_12_23
*274 FILLER_12_27
*275 FILLER_12_49
*276 FILLER_12_62
*277 FILLER_12_73
*278 FILLER_12_80
*279 FILLER_12_91
*280 FILLER_12_98
*281 FILLER_13_108
*282 FILLER_13_116
*283 FILLER_13_123
*284 FILLER_13_135
*285 FILLER_13_147
*286 FILLER_13_159
*287 FILLER_13_167
*288 FILLER_13_24
*289 FILLER_13_48
*290 FILLER_13_66
*291 FILLER_13_78
*292 FILLER_13_89
*293 FILLER_13_99
*294 FILLER_14_103
*295 FILLER_14_112
*296 FILLER_14_119
*297 FILLER_14_126
*298 FILLER_14_138
*299 FILLER_14_141
*300 FILLER_14_153
*301 FILLER_14_165
*302 FILLER_14_24
*303 FILLER_14_49
*304 FILLER_14_63
*305 FILLER_14_76
*306 FILLER_14_92
*307 FILLER_15_108
*308 FILLER_15_118
*309 FILLER_15_126
*310 FILLER_15_133
*311 FILLER_15_145
*312 FILLER_15_157
*313 FILLER_15_165
*314 FILLER_15_25
*315 FILLER_15_3
*316 FILLER_15_49
*317 FILLER_15_55
*318 FILLER_15_73
*319 FILLER_15_85
*320 FILLER_15_97
*321 FILLER_16_106
*322 FILLER_16_117
*323 FILLER_16_127
*324 FILLER_16_134
*325 FILLER_16_144
*326 FILLER_16_156
*327 FILLER_16_24
*328 FILLER_16_3
*329 FILLER_16_45
*330 FILLER_16_65
*331 FILLER_16_78
*332 FILLER_16_94
*333 FILLER_17_104
*334 FILLER_17_119
*335 FILLER_17_127
*336 FILLER_17_134
*337 FILLER_17_141
*338 FILLER_17_148
*339 FILLER_17_160
*340 FILLER_17_23
*341 FILLER_17_43
*342 FILLER_17_52
*343 FILLER_17_73
*344 FILLER_17_93
*345 FILLER_18_105
*346 FILLER_18_115
*347 FILLER_18_122
*348 FILLER_18_129
*349 FILLER_18_136
*350 FILLER_18_141
*351 FILLER_18_153
*352 FILLER_18_165
*353 FILLER_18_24
*354 FILLER_18_45
*355 FILLER_18_65
*356 FILLER_18_78
*357 FILLER_18_94
*358 FILLER_19_106
*359 FILLER_19_116
*360 FILLER_19_123
*361 FILLER_19_135
*362 FILLER_19_147
*363 FILLER_19_159
*364 FILLER_19_167
*365 FILLER_19_29
*366 FILLER_19_3
*367 FILLER_19_49
*368 FILLER_19_55
*369 FILLER_19_7
*370 FILLER_19_73
*371 FILLER_19_85
*372 FILLER_19_96
*373 FILLER_1_105
*374 FILLER_1_111
*375 FILLER_1_113
*376 FILLER_1_125
*377 FILLER_1_13
*378 FILLER_1_137
*379 FILLER_1_149
*380 FILLER_1_161
*381 FILLER_1_167
*382 FILLER_1_25
*383 FILLER_1_37
*384 FILLER_1_49
*385 FILLER_1_55
*386 FILLER_1_57
*387 FILLER_1_6
*388 FILLER_1_69
*389 FILLER_1_81
*390 FILLER_1_93
*391 FILLER_20_107
*392 FILLER_20_114
*393 FILLER_20_121
*394 FILLER_20_133
*395 FILLER_20_139
*396 FILLER_20_141
*397 FILLER_20_153
*398 FILLER_20_165
*399 FILLER_20_24
*400 FILLER_20_50
*401 FILLER_20_70
*402 FILLER_20_80
*403 FILLER_20_91
*404 FILLER_20_99
*405 FILLER_21_106
*406 FILLER_21_113
*407 FILLER_21_125
*408 FILLER_21_137
*409 FILLER_21_149
*410 FILLER_21_161
*411 FILLER_21_167
*412 FILLER_21_31
*413 FILLER_21_51
*414 FILLER_21_55
*415 FILLER_21_6
*416 FILLER_21_73
*417 FILLER_21_83
*418 FILLER_21_92
*419 FILLER_21_99
*420 FILLER_22_108
*421 FILLER_22_120
*422 FILLER_22_132
*423 FILLER_22_141
*424 FILLER_22_153
*425 FILLER_22_165
*426 FILLER_22_22
*427 FILLER_22_3
*428 FILLER_22_45
*429 FILLER_22_65
*430 FILLER_22_78
*431 FILLER_22_89
*432 FILLER_22_96
*433 FILLER_23_102
*434 FILLER_23_110
*435 FILLER_23_113
*436 FILLER_23_125
*437 FILLER_23_137
*438 FILLER_23_149
*439 FILLER_23_161
*440 FILLER_23_167
*441 FILLER_23_23
*442 FILLER_23_3
*443 FILLER_23_43
*444 FILLER_23_52
*445 FILLER_23_66
*446 FILLER_23_76
*447 FILLER_23_83
*448 FILLER_23_90
*449 FILLER_24_109
*450 FILLER_24_121
*451 FILLER_24_133
*452 FILLER_24_139
*453 FILLER_24_141
*454 FILLER_24_153
*455 FILLER_24_165
*456 FILLER_24_19
*457 FILLER_24_27
*458 FILLER_24_45
*459 FILLER_24_58
*460 FILLER_24_70
*461 FILLER_24_77
*462 FILLER_24_83
*463 FILLER_24_85
*464 FILLER_24_97
*465 FILLER_25_104
*466 FILLER_25_113
*467 FILLER_25_125
*468 FILLER_25_137
*469 FILLER_25_149
*470 FILLER_25_161
*471 FILLER_25_167
*472 FILLER_25_23
*473 FILLER_25_3
*474 FILLER_25_43
*475 FILLER_25_52
*476 FILLER_25_61
*477 FILLER_25_68
*478 FILLER_25_80
*479 FILLER_25_92
*480 FILLER_26_109
*481 FILLER_26_121
*482 FILLER_26_133
*483 FILLER_26_139
*484 FILLER_26_141
*485 FILLER_26_153
*486 FILLER_26_165
*487 FILLER_26_23
*488 FILLER_26_27
*489 FILLER_26_3
*490 FILLER_26_39
*491 FILLER_26_50
*492 FILLER_26_57
*493 FILLER_26_69
*494 FILLER_26_81
*495 FILLER_26_85
*496 FILLER_26_97
*497 FILLER_27_105
*498 FILLER_27_111
*499 FILLER_27_113
*500 FILLER_27_125
*501 FILLER_27_137
*502 FILLER_27_149
*503 FILLER_27_161
*504 FILLER_27_167
*505 FILLER_27_19
*506 FILLER_27_33
*507 FILLER_27_45
*508 FILLER_27_52
*509 FILLER_27_57
*510 FILLER_27_69
*511 FILLER_27_81
*512 FILLER_27_93
*513 FILLER_28_109
*514 FILLER_28_121
*515 FILLER_28_133
*516 FILLER_28_139
*517 FILLER_28_141
*518 FILLER_28_15
*519 FILLER_28_153
*520 FILLER_28_165
*521 FILLER_28_24
*522 FILLER_28_3
*523 FILLER_28_33
*524 FILLER_28_40
*525 FILLER_28_52
*526 FILLER_28_64
*527 FILLER_28_76
*528 FILLER_28_85
*529 FILLER_28_97
*530 FILLER_29_105
*531 FILLER_29_111
*532 FILLER_29_113
*533 FILLER_29_125
*534 FILLER_29_137
*535 FILLER_29_149
*536 FILLER_29_16
*537 FILLER_29_161
*538 FILLER_29_167
*539 FILLER_29_24
*540 FILLER_29_3
*541 FILLER_29_31
*542 FILLER_29_43
*543 FILLER_29_55
*544 FILLER_29_57
*545 FILLER_29_69
*546 FILLER_29_81
*547 FILLER_29_93
*548 FILLER_2_109
*549 FILLER_2_121
*550 FILLER_2_13
*551 FILLER_2_133
*552 FILLER_2_139
*553 FILLER_2_141
*554 FILLER_2_153
*555 FILLER_2_165
*556 FILLER_2_20
*557 FILLER_2_29
*558 FILLER_2_41
*559 FILLER_2_53
*560 FILLER_2_65
*561 FILLER_2_77
*562 FILLER_2_83
*563 FILLER_2_85
*564 FILLER_2_97
*565 FILLER_30_109
*566 FILLER_30_121
*567 FILLER_30_133
*568 FILLER_30_139
*569 FILLER_30_141
*570 FILLER_30_15
*571 FILLER_30_153
*572 FILLER_30_165
*573 FILLER_30_23
*574 FILLER_30_27
*575 FILLER_30_29
*576 FILLER_30_41
*577 FILLER_30_53
*578 FILLER_30_65
*579 FILLER_30_7
*580 FILLER_30_77
*581 FILLER_30_83
*582 FILLER_30_85
*583 FILLER_30_97
*584 FILLER_31_105
*585 FILLER_31_111
*586 FILLER_31_113
*587 FILLER_31_125
*588 FILLER_31_137
*589 FILLER_31_14
*590 FILLER_31_149
*591 FILLER_31_161
*592 FILLER_31_167
*593 FILLER_31_26
*594 FILLER_31_38
*595 FILLER_31_50
*596 FILLER_31_57
*597 FILLER_31_69
*598 FILLER_31_7
*599 FILLER_31_81
*600 FILLER_31_93
*601 FILLER_32_109
*602 FILLER_32_121
*603 FILLER_32_133
*604 FILLER_32_139
*605 FILLER_32_14
*606 FILLER_32_141
*607 FILLER_32_153
*608 FILLER_32_165
*609 FILLER_32_26
*610 FILLER_32_29
*611 FILLER_32_41
*612 FILLER_32_53
*613 FILLER_32_65
*614 FILLER_32_7
*615 FILLER_32_77
*616 FILLER_32_83
*617 FILLER_32_85
*618 FILLER_32_97
*619 FILLER_33_105
*620 FILLER_33_111
*621 FILLER_33_113
*622 FILLER_33_125
*623 FILLER_33_137
*624 FILLER_33_149
*625 FILLER_33_15
*626 FILLER_33_161
*627 FILLER_33_167
*628 FILLER_33_27
*629 FILLER_33_3
*630 FILLER_33_39
*631 FILLER_33_51
*632 FILLER_33_55
*633 FILLER_33_57
*634 FILLER_33_69
*635 FILLER_33_81
*636 FILLER_33_93
*637 FILLER_34_109
*638 FILLER_34_121
*639 FILLER_34_133
*640 FILLER_34_139
*641 FILLER_34_141
*642 FILLER_34_15
*643 FILLER_34_153
*644 FILLER_34_165
*645 FILLER_34_27
*646 FILLER_34_29
*647 FILLER_34_3
*648 FILLER_34_41
*649 FILLER_34_53
*650 FILLER_34_65
*651 FILLER_34_77
*652 FILLER_34_83
*653 FILLER_34_85
*654 FILLER_34_97
*655 FILLER_35_105
*656 FILLER_35_111
*657 FILLER_35_113
*658 FILLER_35_125
*659 FILLER_35_137
*660 FILLER_35_149
*661 FILLER_35_161
*662 FILLER_35_167
*663 FILLER_35_19
*664 FILLER_35_31
*665 FILLER_35_43
*666 FILLER_35_55
*667 FILLER_35_57
*668 FILLER_35_69
*669 FILLER_35_7
*670 FILLER_35_81
*671 FILLER_35_93
*672 FILLER_36_109
*673 FILLER_36_121
*674 FILLER_36_133
*675 FILLER_36_139
*676 FILLER_36_141
*677 FILLER_36_15
*678 FILLER_36_153
*679 FILLER_36_165
*680 FILLER_36_27
*681 FILLER_36_29
*682 FILLER_36_3
*683 FILLER_36_41
*684 FILLER_36_53
*685 FILLER_36_65
*686 FILLER_36_77
*687 FILLER_36_83
*688 FILLER_36_85
*689 FILLER_36_97
*690 FILLER_37_105
*691 FILLER_37_111
*692 FILLER_37_113
*693 FILLER_37_125
*694 FILLER_37_137
*695 FILLER_37_149
*696 FILLER_37_15
*697 FILLER_37_161
*698 FILLER_37_167
*699 FILLER_37_27
*700 FILLER_37_3
*701 FILLER_37_39
*702 FILLER_37_51
*703 FILLER_37_55
*704 FILLER_37_57
*705 FILLER_37_69
*706 FILLER_37_81
*707 FILLER_37_93
*708 FILLER_38_109
*709 FILLER_38_121
*710 FILLER_38_133
*711 FILLER_38_139
*712 FILLER_38_141
*713 FILLER_38_15
*714 FILLER_38_153
*715 FILLER_38_165
*716 FILLER_38_27
*717 FILLER_38_29
*718 FILLER_38_3
*719 FILLER_38_41
*720 FILLER_38_53
*721 FILLER_38_65
*722 FILLER_38_77
*723 FILLER_38_83
*724 FILLER_38_85
*725 FILLER_38_97
*726 FILLER_39_109
*727 FILLER_39_113
*728 FILLER_39_125
*729 FILLER_39_137
*730 FILLER_39_141
*731 FILLER_39_15
*732 FILLER_39_153
*733 FILLER_39_165
*734 FILLER_39_27
*735 FILLER_39_29
*736 FILLER_39_3
*737 FILLER_39_41
*738 FILLER_39_53
*739 FILLER_39_57
*740 FILLER_39_69
*741 FILLER_39_81
*742 FILLER_39_85
*743 FILLER_39_97
*744 FILLER_3_105
*745 FILLER_3_11
*746 FILLER_3_111
*747 FILLER_3_113
*748 FILLER_3_125
*749 FILLER_3_137
*750 FILLER_3_149
*751 FILLER_3_15
*752 FILLER_3_161
*753 FILLER_3_167
*754 FILLER_3_22
*755 FILLER_3_29
*756 FILLER_3_3
*757 FILLER_3_41
*758 FILLER_3_53
*759 FILLER_3_57
*760 FILLER_3_69
*761 FILLER_3_7
*762 FILLER_3_81
*763 FILLER_3_93
*764 FILLER_4_109
*765 FILLER_4_121
*766 FILLER_4_133
*767 FILLER_4_139
*768 FILLER_4_141
*769 FILLER_4_153
*770 FILLER_4_16
*771 FILLER_4_165
*772 FILLER_4_23
*773 FILLER_4_27
*774 FILLER_4_3
*775 FILLER_4_32
*776 FILLER_4_39
*777 FILLER_4_51
*778 FILLER_4_63
*779 FILLER_4_7
*780 FILLER_4_75
*781 FILLER_4_83
*782 FILLER_4_85
*783 FILLER_4_97
*784 FILLER_5_105
*785 FILLER_5_111
*786 FILLER_5_113
*787 FILLER_5_125
*788 FILLER_5_13
*789 FILLER_5_137
*790 FILLER_5_149
*791 FILLER_5_161
*792 FILLER_5_167
*793 FILLER_5_23
*794 FILLER_5_32
*795 FILLER_5_39
*796 FILLER_5_46
*797 FILLER_5_54
*798 FILLER_5_57
*799 FILLER_5_69
*800 FILLER_5_81
*801 FILLER_5_93
*802 FILLER_6_109
*803 FILLER_6_121
*804 FILLER_6_13
*805 FILLER_6_133
*806 FILLER_6_139
*807 FILLER_6_141
*808 FILLER_6_153
*809 FILLER_6_165
*810 FILLER_6_24
*811 FILLER_6_35
*812 FILLER_6_42
*813 FILLER_6_49
*814 FILLER_6_56
*815 FILLER_6_63
*816 FILLER_6_75
*817 FILLER_6_83
*818 FILLER_6_85
*819 FILLER_6_97
*820 FILLER_7_103
*821 FILLER_7_111
*822 FILLER_7_113
*823 FILLER_7_125
*824 FILLER_7_137
*825 FILLER_7_149
*826 FILLER_7_161
*827 FILLER_7_167
*828 FILLER_7_17
*829 FILLER_7_28
*830 FILLER_7_3
*831 FILLER_7_39
*832 FILLER_7_48
*833 FILLER_7_60
*834 FILLER_7_67
*835 FILLER_7_79
*836 FILLER_7_91
*837 FILLER_8_109
*838 FILLER_8_121
*839 FILLER_8_133
*840 FILLER_8_139
*841 FILLER_8_141
*842 FILLER_8_153
*843 FILLER_8_165
*844 FILLER_8_18
*845 FILLER_8_26
*846 FILLER_8_3
*847 FILLER_8_39
*848 FILLER_8_50
*849 FILLER_8_59
*850 FILLER_8_66
*851 FILLER_8_7
*852 FILLER_8_73
*853 FILLER_8_80
*854 FILLER_8_85
*855 FILLER_8_97
*856 FILLER_9_110
*857 FILLER_9_113
*858 FILLER_9_125
*859 FILLER_9_137
*860 FILLER_9_149
*861 FILLER_9_161
*862 FILLER_9_167
*863 FILLER_9_19
*864 FILLER_9_33
*865 FILLER_9_44
*866 FILLER_9_52
*867 FILLER_9_63
*868 FILLER_9_72
*869 FILLER_9_79
*870 FILLER_9_86
*871 FILLER_9_98
*872 PHY_0
*873 PHY_1
*874 PHY_10
*875 PHY_11
*876 PHY_12
*877 PHY_13
*878 PHY_14
*879 PHY_15
*880 PHY_16
*881 PHY_17
*882 PHY_18
*883 PHY_19
*884 PHY_2
*885 PHY_20
*886 PHY_21
*887 PHY_22
*888 PHY_23
*889 PHY_24
*890 PHY_25
*891 PHY_26
*892 PHY_27
*893 PHY_28
*894 PHY_29
*895 PHY_3
*896 PHY_30
*897 PHY_31
*898 PHY_32
*899 PHY_33
*900 PHY_34
*901 PHY_35
*902 PHY_36
*903 PHY_37
*904 PHY_38
*905 PHY_39
*906 PHY_4
*907 PHY_40
*908 PHY_41
*909 PHY_42
*910 PHY_43
*911 PHY_44
*912 PHY_45
*913 PHY_46
*914 PHY_47
*915 PHY_48
*916 PHY_49
*917 PHY_5
*918 PHY_50
*919 PHY_51
*920 PHY_52
*921 PHY_53
*922 PHY_54
*923 PHY_55
*924 PHY_56
*925 PHY_57
*926 PHY_58
*927 PHY_59
*928 PHY_6
*929 PHY_60
*930 PHY_61
*931 PHY_62
*932 PHY_63
*933 PHY_64
*934 PHY_65
*935 PHY_66
*936 PHY_67
*937 PHY_68
*938 PHY_69
*939 PHY_7
*940 PHY_70
*941 PHY_71
*942 PHY_72
*943 PHY_73
*944 PHY_74
*945 PHY_75
*946 PHY_76
*947 PHY_77
*948 PHY_78
*949 PHY_79
*950 PHY_8
*951 PHY_9
*952 TAP_100
*953 TAP_101
*954 TAP_102
*955 TAP_103
*956 TAP_104
*957 TAP_105
*958 TAP_106
*959 TAP_107
*960 TAP_108
*961 TAP_109
*962 TAP_110
*963 TAP_111
*964 TAP_112
*965 TAP_113
*966 TAP_114
*967 TAP_115
*968 TAP_116
*969 TAP_117
*970 TAP_118
*971 TAP_119
*972 TAP_120
*973 TAP_121
*974 TAP_122
*975 TAP_123
*976 TAP_124
*977 TAP_125
*978 TAP_126
*979 TAP_127
*980 TAP_128
*981 TAP_129
*982 TAP_130
*983 TAP_131
*984 TAP_132
*985 TAP_133
*986 TAP_134
*987 TAP_135
*988 TAP_136
*989 TAP_137
*990 TAP_138
*991 TAP_139
*992 TAP_140
*993 TAP_141
*994 TAP_142
*995 TAP_143
*996 TAP_144
*997 TAP_145
*998 TAP_146
*999 TAP_147
*1000 TAP_148
*1001 TAP_149
*1002 TAP_150
*1003 TAP_151
*1004 TAP_152
*1005 TAP_153
*1006 TAP_154
*1007 TAP_155
*1008 TAP_156
*1009 TAP_157
*1010 TAP_158
*1011 TAP_159
*1012 TAP_160
*1013 TAP_161
*1014 TAP_162
*1015 TAP_163
*1016 TAP_164
*1017 TAP_165
*1018 TAP_166
*1019 TAP_167
*1020 TAP_168
*1021 TAP_169
*1022 TAP_170
*1023 TAP_171
*1024 TAP_172
*1025 TAP_173
*1026 TAP_174
*1027 TAP_175
*1028 TAP_176
*1029 TAP_177
*1030 TAP_178
*1031 TAP_179
*1032 TAP_180
*1033 TAP_181
*1034 TAP_182
*1035 TAP_183
*1036 TAP_184
*1037 TAP_80
*1038 TAP_81
*1039 TAP_82
*1040 TAP_83
*1041 TAP_84
*1042 TAP_85
*1043 TAP_86
*1044 TAP_87
*1045 TAP_88
*1046 TAP_89
*1047 TAP_90
*1048 TAP_91
*1049 TAP_92
*1050 TAP_93
*1051 TAP_94
*1052 TAP_95
*1053 TAP_96
*1054 TAP_97
*1055 TAP_98
*1056 TAP_99
*1057 _115_
*1058 _116_
*1059 _117_
*1060 _118_
*1061 _119_
*1062 _120_
*1063 _121_
*1064 _122_
*1065 _123_
*1066 _124_
*1067 _125_
*1068 _126_
*1069 _127_
*1070 _128_
*1071 _129_
*1072 _130_
*1073 _131_
*1074 _132_
*1075 _133_
*1076 _134_
*1077 _135_
*1078 _136_
*1079 _137_
*1080 _138_
*1081 _139_
*1082 _140_
*1083 _141_
*1084 _142_
*1085 _143_
*1086 _144_
*1087 _145_
*1088 _146_
*1089 _147_
*1090 _148_
*1091 _149_
*1092 _150_
*1093 _151_
*1094 _152_
*1095 _153_
*1096 _154_
*1097 _155_
*1098 _156_
*1099 _157_
*1100 _158_
*1101 _159_
*1102 _160_
*1103 _161_
*1104 _162_
*1105 _163_
*1106 _164_
*1107 _165_
*1108 _166_
*1109 _167_
*1110 _168_
*1111 _169_
*1112 _170_
*1113 _171_
*1114 _172_
*1115 _173_
*1116 _174_
*1117 _175_
*1118 _176_
*1119 _177_
*1120 _178_
*1121 _179_
*1122 _180_
*1123 _181_
*1124 _182_
*1125 _183_
*1126 _184_
*1127 _185_
*1128 _186_
*1129 _187_
*1130 _188_
*1131 _189_
*1132 _190_
*1133 _191_
*1134 _192_
*1135 _193_
*1136 _194_
*1137 _195_
*1138 _196_
*1139 _197_
*1140 _198_
*1141 _199_
*1142 _200_
*1143 _201_
*1144 _202_
*1145 _203_
*1146 _204_
*1147 _205_
*1148 _206_
*1149 _207_
*1150 _208_
*1151 _209_
*1152 _210_
*1153 _211_
*1154 _212_
*1155 _213_
*1156 _214_
*1157 _215_
*1158 _216_
*1159 _217_
*1160 _218_
*1161 _219_
*1162 _220_
*1163 _221_
*1164 _222_
*1165 _223_
*1166 _224_
*1167 _225_
*1168 _226_
*1169 _227_
*1170 _228_
*1171 _229_
*1172 _230_
*1173 _231_
*1174 _232_
*1175 _233_
*1176 _234_
*1177 _235_
*1178 _236_
*1179 _237_
*1180 _238_
*1181 _239_
*1182 _240_
*1183 _241_
*1184 _242_
*1185 _243_
*1186 _244_
*1187 _245_
*1188 _246_
*1189 _247_
*1190 _248_
*1191 _249_
*1192 _250_
*1193 _251_
*1194 _252_
*1195 _253_
*1196 _254_
*1197 _255_
*1198 _256_
*1199 _257_
*1200 _258_
*1201 _259_
*1202 _260_
*1203 _261_
*1204 _262_
*1205 _263_
*1206 _264_
*1207 _265_
*1208 _266_
*1209 _267_
*1210 _268_
*1211 _269_
*1212 _270_
*1213 _271_
*1214 _272_
*1215 _273_
*1216 _274_
*1217 _275_
*1218 _276_
*1219 _277_
*1220 _278_
*1221 _279_
*1222 _280_
*1223 _281_
*1224 _282_
*1225 _283_
*1226 _284_
*1227 _285_
*1228 _286_
*1229 _287_
*1230 _288_
*1231 _289_
*1232 _290_
*1233 _291_
*1234 _292_
*1235 _293_
*1236 _294_
*1237 _295_
*1238 _296_
*1239 _297_
*1240 _298_
*1241 _299_
*1242 _300_
*1243 _301_
*1244 _302_
*1245 _303_
*1246 _304_
*1247 _305_
*1248 _306_
*1249 input1
*1250 input2
*1251 input3
*1252 input4
*1253 input5
*1254 input6
*1255 repeater10
*1256 repeater11
*1257 repeater7
*1258 repeater8
*1259 repeater9

*PORTS
io_in[0] I
io_in[1] I
io_in[2] I
io_in[3] I
io_in[4] I
io_in[5] I
io_in[6] I
io_in[7] I
io_out[0] O
io_out[1] O
io_out[2] O
io_out[3] O
io_out[4] O
io_out[5] O
io_out[6] O
io_out[7] O

*D_NET *1 0.000748774
*CONN
*P io_in[0] I
*I *1249:A I *D sky130_fd_sc_hd__clkbuf_1
*CAP
1 io_in[0] 0.000374387
2 *1249:A 0.000374387
3 *1249:A *203:8 0
*RES
1 io_in[0] *1249:A 20.8397 
*END

*D_NET *2 0.000588244
*CONN
*P io_in[1] I
*I *1250:A I *D sky130_fd_sc_hd__dlymetal6s2s_1
*CAP
1 io_in[1] 0.000294122
2 *1250:A 0.000294122
3 *1250:A *150:20 0
4 *1250:A *203:8 0
*RES
1 io_in[1] *1250:A 19.0183 
*END

*D_NET *3 0.000641728
*CONN
*P io_in[2] I
*I *1251:A I *D sky130_fd_sc_hd__dlymetal6s2s_1
*CAP
1 io_in[2] 0.000320864
2 *1251:A 0.000320864
3 *1251:A *150:20 0
4 *1251:A *203:8 0
*RES
1 io_in[2] *1251:A 19.6254 
*END

*D_NET *4 0.00172958
*CONN
*P io_in[3] I
*I *1252:A I *D sky130_fd_sc_hd__dlymetal6s2s_1
*CAP
1 io_in[3] 0.000864789
2 *1252:A 0.000864789
3 *1252:A *1256:A 0
4 *1252:A *31:11 0
5 *1252:A *152:32 0
6 *1252:A *171:20 0
7 *1252:A *191:14 0
8 *1252:A *205:17 0
9 *1252:A *212:11 0
*RES
1 io_in[3] *1252:A 22.1063 
*END

*D_NET *5 0.0013371
*CONN
*P io_in[4] I
*I *1253:A I *D sky130_fd_sc_hd__dlymetal6s2s_1
*CAP
1 io_in[4] 0.000668549
2 *1253:A 0.000668549
3 *1253:A *1215:CLK 0
4 *1253:A *150:20 0
5 *1253:A *212:21 0
*RES
1 io_in[4] *1253:A 27.5183 
*END

*D_NET *6 0.00481085
*CONN
*P io_in[5] I
*I *1254:A I *D sky130_fd_sc_hd__clkbuf_1
*CAP
1 io_in[5] 0.00240542
2 *1254:A 0
3 *6:17 0.00240542
4 *6:17 *1122:B 0
5 *6:17 *1155:A1 0
6 *6:17 *1163:A_N 0
7 *6:17 *1200:A 0
8 *6:17 *30:14 0
9 *6:17 *31:11 0
10 *6:17 *36:13 0
11 *6:17 *64:11 0
12 *6:17 *75:19 0
13 *6:17 *84:11 0
14 *6:17 *84:63 0
15 *6:17 *91:8 0
16 *6:17 *99:19 0
17 *6:17 *150:11 0
18 *6:17 *209:27 0
19 *6:17 *210:8 0
*RES
1 io_in[5] *6:17 47.0037 
2 *6:17 *1254:A 9.3 
*END

*D_NET *9 0.00332208
*CONN
*P io_out[0] O
*I *1241:X O *D sky130_fd_sc_hd__buf_2
*CAP
1 io_out[0] 0.00166104
2 *1241:X 0.00166104
3 io_out[0] io_out[1] 0
4 io_out[0] *1092:A1 0
5 io_out[0] *1095:A3 0
6 io_out[0] *1095:S1 0
7 io_out[0] *1108:A1 0
8 io_out[0] *1233:CLK 0
9 io_out[0] *27:8 0
10 io_out[0] *79:46 0
11 io_out[0] *107:49 0
12 io_out[0] *114:8 0
13 io_out[0] *114:12 0
14 io_out[0] *118:53 0
15 io_out[0] *119:16 0
*RES
1 *1241:X io_out[0] 41.0687 
*END

*D_NET *10 0.00348151
*CONN
*P io_out[1] O
*I *1242:X O *D sky130_fd_sc_hd__buf_2
*CAP
1 io_out[1] 0.00174075
2 *1242:X 0.00174075
3 io_out[1] io_out[2] 0
4 io_out[1] io_out[4] 0
5 io_out[1] *1095:S1 0
6 io_out[1] *1100:A0 0
7 io_out[1] *1101:A 0
8 io_out[1] *1151:B 0
9 io_out[1] *1233:CLK 0
10 io_out[1] *1235:CLK 0
11 io_out[1] *1244:A 0
12 io_out[1] *1246:A 0
13 io_out[1] *102:91 0
14 io_out[0] io_out[1] 0
*RES
1 *1242:X io_out[1] 43.1567 
*END

*D_NET *11 0.00197141
*CONN
*P io_out[2] O
*I *1243:X O *D sky130_fd_sc_hd__buf_2
*CAP
1 io_out[2] 0.000985705
2 *1243:X 0.000985705
3 io_out[2] *1100:A0 0
4 io_out[2] *1151:B 0
5 io_out[2] *71:17 0
6 io_out[2] *79:46 0
7 io_out[2] *168:7 0
8 io_out[1] io_out[2] 0
*RES
1 *1243:X io_out[2] 28.5635 
*END

*D_NET *12 0.000895501
*CONN
*P io_out[3] O
*I *1244:X O *D sky130_fd_sc_hd__buf_2
*CAP
1 io_out[3] 0.000447751
2 *1244:X 0.000447751
3 io_out[3] *1101:A 0
4 io_out[3] *1109:A 0
5 io_out[3] *1242:A 0
6 io_out[3] *1245:A 0
*RES
1 *1244:X io_out[3] 22.126 
*END

*D_NET *13 0.00166121
*CONN
*P io_out[4] O
*I *1245:X O *D sky130_fd_sc_hd__buf_2
*CAP
1 io_out[4] 0.000830607
2 *1245:X 0.000830607
3 io_out[4] io_out[5] 0
4 io_out[4] *1101:A 0
5 io_out[4] *1109:A 0
6 io_out[1] io_out[4] 0
*RES
1 *1245:X io_out[4] 25.3135 
*END

*D_NET *14 0.00249864
*CONN
*P io_out[5] O
*I *1246:X O *D sky130_fd_sc_hd__buf_2
*CAP
1 io_out[5] 0.00124932
2 *1246:X 0.00124932
3 io_out[5] *1244:A 0
4 io_out[5] *1246:A 0
5 io_out[4] io_out[5] 0
*RES
1 *1246:X io_out[5] 31.1066 
*END

*D_NET *15 0.00164416
*CONN
*P io_out[6] O
*I *1247:X O *D sky130_fd_sc_hd__buf_2
*CAP
1 io_out[6] 0.000822079
2 *1247:X 0.000822079
3 io_out[6] *1248:A 0
*RES
1 *1247:X io_out[6] 30.626 
*END

*D_NET *16 0.0027103
*CONN
*P io_out[7] O
*I *1248:X O *D sky130_fd_sc_hd__buf_2
*CAP
1 io_out[7] 0.00135515
2 *1248:X 0.00135515
*RES
1 *1248:X io_out[7] 36.9028 
*END

*D_NET *19 0.00306216
*CONN
*I *1237:CLK I *D sky130_fd_sc_hd__dfxtp_1
*I *1240:CLK I *D sky130_fd_sc_hd__dfxtp_1
*I *1238:CLK I *D sky130_fd_sc_hd__dfxtp_1
*I *1239:CLK I *D sky130_fd_sc_hd__dfxtp_1
*I *1184:X O *D sky130_fd_sc_hd__a21o_1
*CAP
1 *1237:CLK 0.000449607
2 *1240:CLK 0
3 *1238:CLK 0.000198505
4 *1239:CLK 0
5 *1184:X 0.000663624
6 *19:36 0.000519195
7 *19:25 0.000417848
8 *19:18 0.000813379
9 *1237:CLK *1157:A 0
10 *1237:CLK *1157:B 0
11 *1237:CLK *1161:A1 0
12 *1237:CLK *1176:A0 0
13 *1237:CLK *32:11 0
14 *1237:CLK *33:7 0
15 *1237:CLK *33:61 0
16 *1238:CLK *36:13 0
17 *1238:CLK *112:21 0
18 *19:18 *1061:A 0
19 *19:18 *1138:A2 0
20 *19:18 *1176:A0 0
21 *19:18 *63:30 0
22 *19:18 *112:21 0
23 *19:18 *134:34 0
24 *19:18 *182:23 0
25 *19:18 *193:38 0
26 *19:18 *195:9 0
27 *19:25 *1159:A1 0
28 *19:25 *1176:A0 0
29 *19:25 *195:9 0
30 *19:36 *1159:A1 0
31 *19:36 *1176:A0 0
*RES
1 *1184:X *19:18 37.0583 
2 *19:18 *1239:CLK 13.8 
3 *19:18 *19:25 3.46429 
4 *19:25 *1238:CLK 17.9429 
5 *19:25 *19:36 1.64286 
6 *19:36 *1240:CLK 13.8 
7 *19:36 *1237:CLK 23.3 
*END

*D_NET *20 0.00635791
*CONN
*I *1231:D I *D sky130_fd_sc_hd__dfxtp_1
*I *1235:D I *D sky130_fd_sc_hd__dfxtp_1
*I *1223:D I *D sky130_fd_sc_hd__dfxtp_1
*I *1227:D I *D sky130_fd_sc_hd__dfxtp_1
*I *1219:D I *D sky130_fd_sc_hd__dfxtp_1
*I *1181:X O *D sky130_fd_sc_hd__clkbuf_1
*CAP
1 *1231:D 0.000510469
2 *1235:D 4.72733e-05
3 *1223:D 6.78084e-05
4 *1227:D 8.79263e-05
5 *1219:D 0.000415456
6 *1181:X 0.000651918
7 *20:51 0.000774352
8 *20:40 0.00140972
9 *20:14 0.00055958
10 *20:12 0.00183341
11 *1219:D *1084:B1 0
12 *1219:D *1086:A3 0
13 *1219:D *1174:A0 0
14 *1219:D *1218:CLK 0
15 *1219:D *78:23 0
16 *1219:D *78:28 0
17 *1219:D *184:17 0
18 *1223:D *1223:CLK 0
19 *1227:D *1157:B 0
20 *1227:D *1227:CLK 0
21 *1231:D *1106:A2 0
22 *1231:D *27:8 0
23 *1231:D *46:13 0
24 *1231:D *114:51 0
25 *20:12 *1084:B1 0
26 *20:12 *1098:A2 0
27 *20:12 *1098:B1 0
28 *20:12 *1099:S 0
29 *20:12 *1156:C 0
30 *20:12 *25:40 0
31 *20:12 *28:11 0
32 *20:12 *102:81 0
33 *20:12 *184:17 0
34 *20:12 *196:38 0
35 *20:14 *1084:B1 0
36 *20:14 *184:17 0
37 *20:40 *1086:A0 0
38 *20:40 *1086:S1 0
39 *20:40 *1095:A0 0
40 *20:40 *1095:A1 0
41 *20:40 *1227:CLK 0
42 *20:40 *1230:D 0
43 *20:40 *21:53 0
44 *20:40 *27:17 0
45 *20:40 *107:41 0
46 *20:40 *114:12 0
47 *20:40 *115:16 0
48 *20:51 *1106:A2 0
49 *20:51 *1230:D 0
50 *20:51 *27:8 0
*RES
1 *1181:X *20:12 27.8893 
2 *20:12 *20:14 1.33929 
3 *20:14 *1219:D 22.8759 
4 *20:14 *1227:D 15.8402 
5 *20:12 *20:40 33.3214 
6 *20:40 *1223:D 15.2152 
7 *20:40 *20:51 4.98214 
8 *20:51 *1235:D 14.7866 
9 *20:51 *1231:D 24.6437 
*END

*D_NET *21 0.00789866
*CONN
*I *1234:D I *D sky130_fd_sc_hd__dfxtp_1
*I *1230:D I *D sky130_fd_sc_hd__dfxtp_1
*I *1222:D I *D sky130_fd_sc_hd__dfxtp_1
*I *1218:D I *D sky130_fd_sc_hd__dfxtp_1
*I *1226:D I *D sky130_fd_sc_hd__dfxtp_1
*I *1179:X O *D sky130_fd_sc_hd__clkbuf_1
*CAP
1 *1234:D 3.64517e-05
2 *1230:D 0.000833253
3 *1222:D 4.72733e-05
4 *1218:D 0.000186084
5 *1226:D 0
6 *1179:X 0.00111574
7 *21:53 0.0011974
8 *21:35 0.000476993
9 *21:31 0.00131704
10 *21:27 0.0011592
11 *21:20 0.00152923
12 *1218:D *1212:RESET_B 0
13 *1218:D *32:11 0
14 *1218:D *82:13 0
15 *1222:D *1092:A1 0
16 *1222:D *124:18 0
17 *1230:D *1102:A1 0
18 *1230:D *1106:A2 0
19 *1230:D *1210:D 0
20 *21:20 *1080:A 0
21 *21:20 *1088:A 0
22 *21:20 *1133:B2 0
23 *21:20 *1142:A1 0
24 *21:20 *1144:B1 0
25 *21:20 *1162:B1 0
26 *21:20 *1180:A0 0
27 *21:20 *1180:A1 0
28 *21:20 *78:28 0
29 *21:20 *115:16 0
30 *21:20 *116:15 0
31 *21:20 *118:15 0
32 *21:20 *118:39 0
33 *21:20 *131:70 0
34 *21:20 *174:33 0
35 *21:20 *210:66 0
36 *21:27 *152:32 0
37 *21:27 *174:33 0
38 *21:27 *210:43 0
39 *21:27 *210:66 0
40 *21:31 *137:32 0
41 *21:31 *152:32 0
42 *21:31 *210:43 0
43 *21:35 *1086:A3 0
44 *21:35 *1089:A1 0
45 *21:35 *1092:A0 0
46 *21:35 *1210:D 0
47 *21:53 *1092:A0 0
48 *21:53 *1095:A0 0
49 *21:53 *1210:D 0
50 *20:40 *1230:D 0
51 *20:40 *21:53 0
52 *20:51 *1230:D 0
*RES
1 *1179:X *21:20 49.9317 
2 *21:20 *21:27 4.95473 
3 *21:27 *21:31 5.97933 
4 *21:31 *21:35 10.942 
5 *21:35 *1226:D 9.3 
6 *21:35 *1218:D 22.5321 
7 *21:31 *21:53 7.25893 
8 *21:53 *1222:D 14.7866 
9 *21:53 *1230:D 31.8402 
10 *21:27 *1234:D 17.9555 
*END

*D_NET *22 0.00658972
*CONN
*I *1217:D I *D sky130_fd_sc_hd__dfxtp_1
*I *1225:D I *D sky130_fd_sc_hd__dfxtp_1
*I *1233:D I *D sky130_fd_sc_hd__dfxtp_1
*I *1229:D I *D sky130_fd_sc_hd__dfxtp_1
*I *1221:D I *D sky130_fd_sc_hd__dfxtp_1