* NGSPICE file created from tholin_avalonsemi_5401.ext - technology: sky130A

* Black-box entry subcircuit for sky130_fd_sc_hd__tapvpwrvgnd_1 abstract view
.subckt sky130_fd_sc_hd__tapvpwrvgnd_1 VGND VPWR
.ends

* Black-box entry subcircuit for sky130_ef_sc_hd__decap_12 abstract view
.subckt sky130_ef_sc_hd__decap_12 VGND VPWR VPB VNB
.ends

* Black-box entry subcircuit for sky130_fd_sc_hd__dfxtp_1 abstract view
.subckt sky130_fd_sc_hd__dfxtp_1 CLK D VGND VNB VPB VPWR Q
.ends

* Black-box entry subcircuit for sky130_fd_sc_hd__decap_4 abstract view
.subckt sky130_fd_sc_hd__decap_4 VGND VNB VPB VPWR
.ends

* Black-box entry subcircuit for sky130_fd_sc_hd__nand2_1 abstract view
.subckt sky130_fd_sc_hd__nand2_1 A B VGND VNB VPB VPWR Y
.ends

* Black-box entry subcircuit for sky130_fd_sc_hd__a31o_1 abstract view
.subckt sky130_fd_sc_hd__a31o_1 A1 A2 A3 B1 VGND VNB VPB VPWR X
.ends

* Black-box entry subcircuit for sky130_fd_sc_hd__decap_3 abstract view
.subckt sky130_fd_sc_hd__decap_3 VGND VNB VPB VPWR
.ends

* Black-box entry subcircuit for sky130_fd_sc_hd__fill_1 abstract view
.subckt sky130_fd_sc_hd__fill_1 VGND VNB VPB VPWR
.ends

* Black-box entry subcircuit for sky130_fd_sc_hd__decap_6 abstract view
.subckt sky130_fd_sc_hd__decap_6 VGND VNB VPB VPWR
.ends

* Black-box entry subcircuit for sky130_fd_sc_hd__clkbuf_1 abstract view
.subckt sky130_fd_sc_hd__clkbuf_1 A VGND VNB VPB VPWR X
.ends

* Black-box entry subcircuit for sky130_fd_sc_hd__fill_2 abstract view
.subckt sky130_fd_sc_hd__fill_2 VGND VNB VPB VPWR
.ends

* Black-box entry subcircuit for sky130_fd_sc_hd__a21bo_1 abstract view
.subckt sky130_fd_sc_hd__a21bo_1 A1 A2 B1_N VGND VNB VPB VPWR X
.ends

* Black-box entry subcircuit for sky130_fd_sc_hd__decap_8 abstract view
.subckt sky130_fd_sc_hd__decap_8 VGND VNB VPB VPWR
.ends

* Black-box entry subcircuit for sky130_fd_sc_hd__a21o_1 abstract view
.subckt sky130_fd_sc_hd__a21o_1 A1 A2 B1 VGND VNB VPB VPWR X
.ends

* Black-box entry subcircuit for sky130_fd_sc_hd__dfrtp_2 abstract view
.subckt sky130_fd_sc_hd__dfrtp_2 CLK D RESET_B VGND VNB VPB VPWR Q
.ends

* Black-box entry subcircuit for sky130_fd_sc_hd__mux2_1 abstract view
.subckt sky130_fd_sc_hd__mux2_1 A0 A1 S VGND VNB VPB VPWR X
.ends

* Black-box entry subcircuit for sky130_fd_sc_hd__or4_2 abstract view
.subckt sky130_fd_sc_hd__or4_2 A B C D VGND VNB VPB VPWR X
.ends

* Black-box entry subcircuit for sky130_fd_sc_hd__dfrtp_1 abstract view
.subckt sky130_fd_sc_hd__dfrtp_1 CLK D RESET_B VGND VNB VPB VPWR Q
.ends

* Black-box entry subcircuit for sky130_fd_sc_hd__buf_2 abstract view
.subckt sky130_fd_sc_hd__buf_2 A VGND VNB VPB VPWR X
.ends

* Black-box entry subcircuit for sky130_fd_sc_hd__nor2_1 abstract view
.subckt sky130_fd_sc_hd__nor2_1 A B VGND VNB VPB VPWR Y
.ends

* Black-box entry subcircuit for sky130_fd_sc_hd__o21a_1 abstract view
.subckt sky130_fd_sc_hd__o21a_1 A1 A2 B1 VGND VNB VPB VPWR X
.ends

* Black-box entry subcircuit for sky130_fd_sc_hd__dlymetal6s2s_1 abstract view
.subckt sky130_fd_sc_hd__dlymetal6s2s_1 A VGND VNB VPB VPWR X
.ends

* Black-box entry subcircuit for sky130_fd_sc_hd__and3b_1 abstract view
.subckt sky130_fd_sc_hd__and3b_1 A_N B C VGND VNB VPB VPWR X
.ends

* Black-box entry subcircuit for sky130_fd_sc_hd__a21oi_1 abstract view
.subckt sky130_fd_sc_hd__a21oi_1 A1 A2 B1 VGND VNB VPB VPWR Y
.ends

* Black-box entry subcircuit for sky130_fd_sc_hd__xor2_1 abstract view
.subckt sky130_fd_sc_hd__xor2_1 A B VGND VNB VPB VPWR X
.ends

* Black-box entry subcircuit for sky130_fd_sc_hd__mux4_1 abstract view
.subckt sky130_fd_sc_hd__mux4_1 A0 A1 A2 A3 S0 S1 VGND VNB VPB VPWR X
.ends

* Black-box entry subcircuit for sky130_fd_sc_hd__o21ba_1 abstract view
.subckt sky130_fd_sc_hd__o21ba_1 A1 A2 B1_N VGND VNB VPB VPWR X
.ends

* Black-box entry subcircuit for sky130_fd_sc_hd__and3_1 abstract view
.subckt sky130_fd_sc_hd__and3_1 A B C VGND VNB VPB VPWR X
.ends

* Black-box entry subcircuit for sky130_fd_sc_hd__nor3_1 abstract view
.subckt sky130_fd_sc_hd__nor3_1 A B C VGND VNB VPB VPWR Y
.ends

* Black-box entry subcircuit for sky130_fd_sc_hd__nand3b_1 abstract view
.subckt sky130_fd_sc_hd__nand3b_1 A_N B C VGND VNB VPB VPWR Y
.ends

* Black-box entry subcircuit for sky130_fd_sc_hd__inv_2 abstract view
.subckt sky130_fd_sc_hd__inv_2 A VGND VNB VPB VPWR Y
.ends

* Black-box entry subcircuit for sky130_fd_sc_hd__or4_1 abstract view
.subckt sky130_fd_sc_hd__or4_1 A B C D VGND VNB VPB VPWR X
.ends

* Black-box entry subcircuit for sky130_fd_sc_hd__a22o_1 abstract view
.subckt sky130_fd_sc_hd__a22o_1 A1 A2 B1 B2 VGND VNB VPB VPWR X
.ends

* Black-box entry subcircuit for sky130_fd_sc_hd__a31oi_1 abstract view
.subckt sky130_fd_sc_hd__a31oi_1 A1 A2 A3 B1 VGND VNB VPB VPWR Y
.ends

* Black-box entry subcircuit for sky130_fd_sc_hd__or2_1 abstract view
.subckt sky130_fd_sc_hd__or2_1 A B VGND VNB VPB VPWR X
.ends

* Black-box entry subcircuit for sky130_fd_sc_hd__a221o_2 abstract view
.subckt sky130_fd_sc_hd__a221o_2 A1 A2 B1 B2 C1 VGND VNB VPB VPWR X
.ends

* Black-box entry subcircuit for sky130_fd_sc_hd__a2bb2o_1 abstract view
.subckt sky130_fd_sc_hd__a2bb2o_1 A1_N A2_N B1 B2 VGND VNB VPB VPWR X
.ends

* Black-box entry subcircuit for sky130_fd_sc_hd__or3b_1 abstract view
.subckt sky130_fd_sc_hd__or3b_1 A B C_N VGND VNB VPB VPWR X
.ends

* Black-box entry subcircuit for sky130_fd_sc_hd__and2_1 abstract view
.subckt sky130_fd_sc_hd__and2_1 A B VGND VNB VPB VPWR X
.ends

* Black-box entry subcircuit for sky130_fd_sc_hd__dfstp_1 abstract view
.subckt sky130_fd_sc_hd__dfstp_1 CLK D SET_B VGND VNB VPB VPWR Q
.ends

* Black-box entry subcircuit for sky130_fd_sc_hd__o211a_1 abstract view
.subckt sky130_fd_sc_hd__o211a_1 A1 A2 B1 C1 VGND VNB VPB VPWR X
.ends

* Black-box entry subcircuit for sky130_fd_sc_hd__o41a_1 abstract view
.subckt sky130_fd_sc_hd__o41a_1 A1 A2 A3 A4 B1 VGND VNB VPB VPWR X
.ends

* Black-box entry subcircuit for sky130_fd_sc_hd__nand3_1 abstract view
.subckt sky130_fd_sc_hd__nand3_1 A B C VGND VNB VPB VPWR Y
.ends

* Black-box entry subcircuit for sky130_fd_sc_hd__xnor2_1 abstract view
.subckt sky130_fd_sc_hd__xnor2_1 A B VGND VNB VPB VPWR Y
.ends

* Black-box entry subcircuit for sky130_fd_sc_hd__nand4_1 abstract view
.subckt sky130_fd_sc_hd__nand4_1 A B C D VGND VNB VPB VPWR Y
.ends

* Black-box entry subcircuit for sky130_fd_sc_hd__clkbuf_2 abstract view
.subckt sky130_fd_sc_hd__clkbuf_2 A VGND VNB VPB VPWR X
.ends

* Black-box entry subcircuit for sky130_fd_sc_hd__and2b_1 abstract view
.subckt sky130_fd_sc_hd__and2b_1 A_N B VGND VNB VPB VPWR X
.ends

.subckt tholin_avalonsemi_5401 io_in[0] io_in[1] io_in[2] io_in[3] io_in[4] io_in[5]
+ io_in[6] io_in[7] io_out[0] io_out[1] io_out[2] io_out[3] io_out[4] io_out[5] io_out[6]
+ io_out[7] vccd1 vssd1
XTAP_177 vssd1 vccd1 sky130_fd_sc_hd__tapvpwrvgnd_1
XFILLER_26_85 vssd1 vccd1 vccd1 vssd1 sky130_ef_sc_hd__decap_12
XFILLER_9_137 vssd1 vccd1 vccd1 vssd1 sky130_ef_sc_hd__decap_12
X_294_ _241_/X _294_/D vssd1 vssd1 vccd1 vccd1 _294_/Q sky130_fd_sc_hd__dfxtp_1
XFILLER_37_51 vssd1 vssd1 vccd1 vccd1 sky130_fd_sc_hd__decap_4
XFILLER_12_98 vssd1 vssd1 vccd1 vccd1 sky130_fd_sc_hd__decap_4
X_277_ _225_/X _293_/D vssd1 vssd1 vccd1 vccd1 _277_/Q sky130_fd_sc_hd__dfxtp_1
X_131_ _218_/A _215_/B vssd1 vssd1 vccd1 vccd1 _132_/B sky130_fd_sc_hd__nand2_1
X_200_ _218_/A _215_/B _184_/A _199_/X vssd1 vssd1 vccd1 vccd1 _200_/X sky130_fd_sc_hd__a31o_1
XFILLER_2_165 vssd1 vssd1 vccd1 vccd1 sky130_fd_sc_hd__decap_3
XFILLER_2_121 vssd1 vccd1 vccd1 vssd1 sky130_ef_sc_hd__decap_12
XFILLER_0_57 vssd1 vccd1 vccd1 vssd1 sky130_ef_sc_hd__decap_12
XFILLER_9_33 vssd1 vssd1 vccd1 vccd1 sky130_fd_sc_hd__decap_4
XFILLER_9_44 vssd1 vssd1 vccd1 vccd1 sky130_fd_sc_hd__decap_4
XFILLER_38_139 vssd1 vssd1 vccd1 vccd1 sky130_fd_sc_hd__fill_1
XFILLER_34_85 vssd1 vccd1 vccd1 vssd1 sky130_ef_sc_hd__decap_12
XFILLER_34_41 vssd1 vccd1 vccd1 vssd1 sky130_ef_sc_hd__decap_12
XFILLER_37_161 vssd1 vssd1 vccd1 vccd1 sky130_fd_sc_hd__decap_6
XFILLER_34_153 vssd1 vccd1 vccd1 vssd1 sky130_ef_sc_hd__decap_12
XFILLER_26_109 vssd1 vccd1 vccd1 vssd1 sky130_ef_sc_hd__decap_12
XFILLER_6_56 vssd1 vssd1 vccd1 vccd1 sky130_fd_sc_hd__decap_4
XFILLER_31_167 vssd1 vssd1 vccd1 vccd1 sky130_fd_sc_hd__fill_1
XTAP_178 vssd1 vccd1 sky130_fd_sc_hd__tapvpwrvgnd_1
XTAP_167 vssd1 vccd1 sky130_fd_sc_hd__tapvpwrvgnd_1
XTAP_156 vssd1 vccd1 sky130_fd_sc_hd__tapvpwrvgnd_1
XTAP_145 vssd1 vccd1 sky130_fd_sc_hd__tapvpwrvgnd_1
XTAP_134 vssd1 vccd1 sky130_fd_sc_hd__tapvpwrvgnd_1
XTAP_123 vssd1 vccd1 sky130_fd_sc_hd__tapvpwrvgnd_1
XTAP_101 vssd1 vccd1 sky130_fd_sc_hd__tapvpwrvgnd_1
XTAP_112 vssd1 vccd1 sky130_fd_sc_hd__tapvpwrvgnd_1
XFILLER_26_97 vssd1 vccd1 vccd1 vssd1 sky130_ef_sc_hd__decap_12
X_293_ _231_/Y _293_/D vssd1 vssd1 vccd1 vccd1 _293_/Q sky130_fd_sc_hd__dfxtp_1
XFILLER_13_167 vssd1 vssd1 vccd1 vccd1 sky130_fd_sc_hd__fill_1
XFILLER_13_123 vssd1 vccd1 vccd1 vssd1 sky130_ef_sc_hd__decap_12
XFILLER_3_57 vssd1 vccd1 vccd1 vssd1 sky130_ef_sc_hd__decap_12
XFILLER_9_149 vssd1 vccd1 vccd1 vssd1 sky130_ef_sc_hd__decap_12
X_276_ _225_/X _292_/D vssd1 vssd1 vccd1 vccd1 _276_/Q sky130_fd_sc_hd__dfxtp_1
XFILLER_23_43 vssd1 vssd1 vccd1 vccd1 sky130_fd_sc_hd__decap_4
X_130_ _209_/A vssd1 vssd1 vccd1 vccd1 _215_/B sky130_fd_sc_hd__clkbuf_1
XFILLER_23_76 vssd1 vssd1 vccd1 vccd1 sky130_fd_sc_hd__decap_4
XFILLER_2_133 vssd1 vssd1 vccd1 vccd1 sky130_fd_sc_hd__decap_6
XFILLER_0_69 vssd1 vccd1 vccd1 vssd1 sky130_ef_sc_hd__decap_12
X_259_ _259_/A _259_/B vssd1 vssd1 vccd1 vccd1 _259_/Y sky130_fd_sc_hd__nand2_1
XFILLER_34_97 vssd1 vccd1 vccd1 vssd1 sky130_ef_sc_hd__decap_12
XFILLER_34_53 vssd1 vccd1 vccd1 vssd1 sky130_ef_sc_hd__decap_12
XFILLER_18_65 vssd1 vssd1 vccd1 vccd1 sky130_fd_sc_hd__decap_4
XFILLER_29_31 vssd1 vccd1 vccd1 vssd1 sky130_ef_sc_hd__decap_12
XFILLER_20_99 vssd1 vssd1 vccd1 vccd1 sky130_fd_sc_hd__decap_4
XFILLER_34_121 vssd1 vccd1 vccd1 vssd1 sky130_ef_sc_hd__decap_12
XFILLER_6_13 vssd1 vssd1 vccd1 vccd1 sky130_fd_sc_hd__decap_4
XFILLER_6_24 vssd1 vssd1 vccd1 vccd1 sky130_fd_sc_hd__decap_4
XFILLER_6_35 vssd1 vssd1 vccd1 vccd1 sky130_fd_sc_hd__decap_4
XFILLER_34_165 vssd1 vssd1 vccd1 vccd1 sky130_fd_sc_hd__decap_3
XFILLER_15_55 vssd1 vssd1 vccd1 vccd1 sky130_fd_sc_hd__fill_1
XFILLER_31_113 vssd1 vccd1 vccd1 vssd1 sky130_ef_sc_hd__decap_12
XTAP_179 vssd1 vccd1 sky130_fd_sc_hd__tapvpwrvgnd_1
XTAP_168 vssd1 vccd1 sky130_fd_sc_hd__tapvpwrvgnd_1
XTAP_157 vssd1 vccd1 sky130_fd_sc_hd__tapvpwrvgnd_1
XTAP_146 vssd1 vccd1 sky130_fd_sc_hd__tapvpwrvgnd_1
XTAP_135 vssd1 vccd1 sky130_fd_sc_hd__tapvpwrvgnd_1
XTAP_124 vssd1 vccd1 sky130_fd_sc_hd__tapvpwrvgnd_1
XTAP_102 vssd1 vccd1 sky130_fd_sc_hd__tapvpwrvgnd_1
XTAP_113 vssd1 vccd1 sky130_fd_sc_hd__tapvpwrvgnd_1
X_292_ _231_/Y _292_/D vssd1 vssd1 vccd1 vccd1 _292_/Q sky130_fd_sc_hd__dfxtp_1
XFILLER_13_135 vssd1 vccd1 vccd1 vssd1 sky130_ef_sc_hd__decap_12
XFILLER_3_69 vssd1 vccd1 vccd1 vssd1 sky130_ef_sc_hd__decap_12
XFILLER_6_109 vssd1 vccd1 vccd1 vssd1 sky130_ef_sc_hd__decap_12
XFILLER_12_23 vssd1 vssd1 vccd1 vccd1 sky130_fd_sc_hd__decap_4
X_275_ _225_/X _291_/D vssd1 vssd1 vccd1 vccd1 _275_/Q sky130_fd_sc_hd__dfxtp_1
XFILLER_23_66 vssd1 vssd1 vccd1 vccd1 sky130_fd_sc_hd__decap_4
XFILLER_3_3 vssd1 vssd1 vccd1 vccd1 sky130_fd_sc_hd__fill_1
XFILLER_0_26 vssd1 vssd1 vccd1 vccd1 sky130_fd_sc_hd__fill_2
XFILLER_36_3 vssd1 vccd1 vccd1 vssd1 sky130_ef_sc_hd__decap_12
X_258_ _258_/A _259_/B vssd1 vssd1 vccd1 vccd1 _258_/Y sky130_fd_sc_hd__nand2_1
X_189_ _214_/B _189_/B vssd1 vssd1 vccd1 vccd1 _189_/Y sky130_fd_sc_hd__nand2_1
XFILLER_9_79 vssd1 vssd1 vccd1 vccd1 sky130_fd_sc_hd__decap_4
XFILLER_34_65 vssd1 vccd1 vccd1 vssd1 sky130_ef_sc_hd__decap_12
XFILLER_29_43 vssd1 vccd1 vccd1 vssd1 sky130_ef_sc_hd__decap_12
XFILLER_28_141 vssd1 vccd1 vccd1 vssd1 sky130_ef_sc_hd__decap_12
XFILLER_34_133 vssd1 vssd1 vccd1 vccd1 sky130_fd_sc_hd__decap_6
XFILLER_16_144 vssd1 vccd1 vccd1 vssd1 sky130_ef_sc_hd__decap_12
XTAP_169 vssd1 vccd1 sky130_fd_sc_hd__tapvpwrvgnd_1
XFILLER_31_125 vssd1 vccd1 vccd1 vssd1 sky130_ef_sc_hd__decap_12
XTAP_158 vssd1 vccd1 sky130_fd_sc_hd__tapvpwrvgnd_1
XTAP_147 vssd1 vccd1 sky130_fd_sc_hd__tapvpwrvgnd_1
XTAP_136 vssd1 vccd1 sky130_fd_sc_hd__tapvpwrvgnd_1
XTAP_125 vssd1 vccd1 sky130_fd_sc_hd__tapvpwrvgnd_1
XTAP_103 vssd1 vccd1 sky130_fd_sc_hd__tapvpwrvgnd_1
XTAP_114 vssd1 vccd1 sky130_fd_sc_hd__tapvpwrvgnd_1
X_291_ _231_/Y _291_/D vssd1 vssd1 vccd1 vccd1 _291_/Q sky130_fd_sc_hd__dfxtp_1
XFILLER_13_147 vssd1 vccd1 vccd1 vssd1 sky130_ef_sc_hd__decap_12
XFILLER_3_15 vssd1 vssd1 vccd1 vccd1 sky130_fd_sc_hd__decap_4
XFILLER_10_139 vssd1 vssd1 vccd1 vccd1 sky130_fd_sc_hd__fill_1
X_274_ _225_/X _290_/D vssd1 vssd1 vccd1 vccd1 _274_/Q sky130_fd_sc_hd__dfxtp_1
XFILLER_23_23 vssd1 vssd1 vccd1 vccd1 sky130_fd_sc_hd__decap_4
XFILLER_29_3 vssd1 vssd1 vccd1 vccd1 sky130_fd_sc_hd__decap_4
X_188_ _296_/Q _197_/B _173_/Y vssd1 vssd1 vccd1 vccd1 _189_/B sky130_fd_sc_hd__a21bo_1
X_257_ _258_/A _259_/B vssd1 vssd1 vccd1 vccd1 _257_/Y sky130_fd_sc_hd__nand2_1
XFILLER_34_77 vssd1 vssd1 vccd1 vccd1 sky130_fd_sc_hd__decap_6
XFILLER_18_78 vssd1 vssd1 vccd1 vccd1 sky130_fd_sc_hd__decap_6
XFILLER_18_45 vssd1 vssd1 vccd1 vccd1 sky130_fd_sc_hd__decap_4
XFILLER_38_109 vssd1 vccd1 vccd1 vssd1 sky130_ef_sc_hd__decap_12
XFILLER_20_24 vssd1 vssd1 vccd1 vccd1 sky130_fd_sc_hd__decap_4
XFILLER_1_81 vssd1 vccd1 vccd1 vssd1 sky130_ef_sc_hd__decap_12
XFILLER_29_55 vssd1 vssd1 vccd1 vccd1 sky130_fd_sc_hd__fill_1
XFILLER_28_153 vssd1 vccd1 vccd1 vssd1 sky130_ef_sc_hd__decap_12
XFILLER_25_167 vssd1 vssd1 vccd1 vccd1 sky130_fd_sc_hd__fill_1
XFILLER_31_137 vssd1 vccd1 vccd1 vssd1 sky130_ef_sc_hd__decap_12
XTAP_159 vssd1 vccd1 sky130_fd_sc_hd__tapvpwrvgnd_1
XTAP_148 vssd1 vccd1 sky130_fd_sc_hd__tapvpwrvgnd_1
XTAP_137 vssd1 vccd1 sky130_fd_sc_hd__tapvpwrvgnd_1
XTAP_126 vssd1 vccd1 sky130_fd_sc_hd__tapvpwrvgnd_1
XFILLER_16_156 vssd1 vccd1 vccd1 vssd1 sky130_ef_sc_hd__decap_12
XFILLER_16_134 vssd1 vssd1 vccd1 vccd1 sky130_fd_sc_hd__decap_6
XTAP_104 vssd1 vccd1 sky130_fd_sc_hd__tapvpwrvgnd_1
XFILLER_11_3 vssd1 vssd1 vccd1 vccd1 sky130_fd_sc_hd__fill_1
XTAP_115 vssd1 vccd1 sky130_fd_sc_hd__tapvpwrvgnd_1
XFILLER_26_23 vssd1 vssd1 vccd1 vccd1 sky130_fd_sc_hd__decap_4
XFILLER_7_91 vssd1 vccd1 vccd1 vssd1 sky130_ef_sc_hd__decap_12
X_290_ _231_/Y _290_/D vssd1 vssd1 vccd1 vccd1 _290_/Q sky130_fd_sc_hd__dfxtp_1
XFILLER_13_159 vssd1 vssd1 vccd1 vccd1 sky130_fd_sc_hd__decap_8
XFILLER_8_141 vssd1 vccd1 vccd1 vssd1 sky130_ef_sc_hd__decap_12
XFILLER_10_107 vssd1 vccd1 vccd1 vssd1 sky130_ef_sc_hd__decap_12
XFILLER_37_55 vssd1 vssd1 vccd1 vccd1 sky130_fd_sc_hd__fill_1
XFILLER_5_111 vssd1 vssd1 vccd1 vccd1 sky130_fd_sc_hd__fill_1
X_273_ input1/X _273_/D vssd1 vssd1 vccd1 vccd1 _273_/Q sky130_fd_sc_hd__dfxtp_1
X_256_ _256_/A _256_/B vssd1 vssd1 vccd1 vccd1 _256_/Y sky130_fd_sc_hd__nand2_1
X_187_ _180_/Y _184_/Y _186_/Y vssd1 vssd1 vccd1 vccd1 _187_/X sky130_fd_sc_hd__a21o_1
XFILLER_18_24 vssd1 vssd1 vccd1 vccd1 sky130_fd_sc_hd__decap_4
X_239_ _239_/A vssd1 vssd1 vccd1 vccd1 _293_/D sky130_fd_sc_hd__clkbuf_1
XFILLER_1_93 vssd1 vccd1 vccd1 vssd1 sky130_ef_sc_hd__decap_12
XFILLER_28_165 vssd1 vssd1 vccd1 vccd1 sky130_fd_sc_hd__decap_3
XFILLER_28_121 vssd1 vccd1 vccd1 vssd1 sky130_ef_sc_hd__decap_12
XFILLER_6_49 vssd1 vssd1 vccd1 vccd1 sky130_fd_sc_hd__decap_4
XFILLER_10_80 vssd1 vssd1 vccd1 vccd1 sky130_fd_sc_hd__decap_4
XFILLER_31_57 vssd1 vccd1 vccd1 vssd1 sky130_ef_sc_hd__decap_12
XFILLER_25_113 vssd1 vccd1 vccd1 vssd1 sky130_ef_sc_hd__decap_12
XFILLER_15_25 vssd1 vssd1 vccd1 vccd1 sky130_fd_sc_hd__decap_4
XFILLER_31_149 vssd1 vccd1 vccd1 vssd1 sky130_ef_sc_hd__decap_12
XFILLER_31_105 vssd1 vssd1 vccd1 vccd1 sky130_fd_sc_hd__decap_6
XTAP_149 vssd1 vccd1 sky130_fd_sc_hd__tapvpwrvgnd_1
XTAP_138 vssd1 vccd1 sky130_fd_sc_hd__tapvpwrvgnd_1
XTAP_127 vssd1 vccd1 sky130_fd_sc_hd__tapvpwrvgnd_1
XTAP_116 vssd1 vccd1 sky130_fd_sc_hd__tapvpwrvgnd_1
XTAP_105 vssd1 vccd1 sky130_fd_sc_hd__tapvpwrvgnd_1
XFILLER_26_57 vssd1 vccd1 vccd1 vssd1 sky130_ef_sc_hd__decap_12
XFILLER_13_116 vssd1 vssd1 vccd1 vccd1 sky130_fd_sc_hd__decap_4
Xrepeater10 _267_/CLK vssd1 vssd1 vccd1 vccd1 _258_/A sky130_fd_sc_hd__clkbuf_1
XFILLER_8_153 vssd1 vccd1 vccd1 vssd1 sky130_ef_sc_hd__decap_12
X_272_ _222_/X _272_/D _259_/Y vssd1 vssd1 vccd1 vccd1 _272_/Q sky130_fd_sc_hd__dfrtp_2
XFILLER_10_119 vssd1 vccd1 vccd1 vssd1 sky130_ef_sc_hd__decap_12
XFILLER_5_167 vssd1 vssd1 vccd1 vccd1 sky130_fd_sc_hd__fill_1
X_255_ _256_/A _256_/B vssd1 vssd1 vccd1 vccd1 _255_/Y sky130_fd_sc_hd__nand2_1
XFILLER_0_29 vssd1 vccd1 vccd1 vssd1 sky130_ef_sc_hd__decap_12
XFILLER_0_18 vssd1 vssd1 vccd1 vccd1 sky130_fd_sc_hd__decap_8
X_186_ _186_/A _186_/B vssd1 vssd1 vccd1 vccd1 _186_/Y sky130_fd_sc_hd__nand2_1
XFILLER_37_111 vssd1 vssd1 vccd1 vccd1 sky130_fd_sc_hd__fill_1
XFILLER_34_3 vssd1 vccd1 vccd1 vssd1 sky130_ef_sc_hd__decap_12
X_238_ _298_/Q _260_/D _272_/Q vssd1 vssd1 vccd1 vccd1 _239_/A sky130_fd_sc_hd__mux2_1
X_169_ _169_/A _178_/A _263_/Q _262_/Q vssd1 vssd1 vccd1 vccd1 _177_/B sky130_fd_sc_hd__or4_2
XFILLER_29_57 vssd1 vccd1 vccd1 vssd1 sky130_ef_sc_hd__decap_12
XFILLER_29_24 vssd1 vssd1 vccd1 vccd1 sky130_fd_sc_hd__decap_4
XFILLER_28_133 vssd1 vssd1 vccd1 vccd1 sky130_fd_sc_hd__decap_6
XFILLER_31_14 vssd1 vccd1 vccd1 vssd1 sky130_ef_sc_hd__decap_12
XFILLER_25_125 vssd1 vccd1 vccd1 vssd1 sky130_ef_sc_hd__decap_12
XFILLER_31_69 vssd1 vccd1 vccd1 vssd1 sky130_ef_sc_hd__decap_12
XTAP_139 vssd1 vccd1 sky130_fd_sc_hd__tapvpwrvgnd_1
XTAP_128 vssd1 vccd1 sky130_fd_sc_hd__tapvpwrvgnd_1
XPHY_0 vssd1 vssd1 vccd1 vccd1 sky130_fd_sc_hd__decap_3
XFILLER_7_60 vssd1 vssd1 vccd1 vccd1 sky130_fd_sc_hd__decap_4
XTAP_106 vssd1 vccd1 sky130_fd_sc_hd__tapvpwrvgnd_1
XTAP_117 vssd1 vccd1 sky130_fd_sc_hd__tapvpwrvgnd_1
XFILLER_26_69 vssd1 vccd1 vccd1 vssd1 sky130_ef_sc_hd__decap_12
XFILLER_21_161 vssd1 vssd1 vccd1 vccd1 sky130_fd_sc_hd__decap_6
XFILLER_3_29 vssd1 vccd1 vccd1 vssd1 sky130_ef_sc_hd__decap_12
Xrepeater11 input1/X vssd1 vssd1 vccd1 vccd1 _267_/CLK sky130_fd_sc_hd__clkbuf_1
XFILLER_8_121 vssd1 vccd1 vccd1 vssd1 sky130_ef_sc_hd__decap_12
XFILLER_8_165 vssd1 vssd1 vccd1 vccd1 sky130_fd_sc_hd__decap_3
XFILLER_37_57 vssd1 vccd1 vccd1 vssd1 sky130_ef_sc_hd__decap_12
XFILLER_12_27 vssd1 vssd1 vccd1 vccd1 sky130_fd_sc_hd__fill_1
XFILLER_12_49 vssd1 vssd1 vccd1 vccd1 sky130_fd_sc_hd__decap_4
X_271_ _168_/Y _271_/D _258_/Y vssd1 vssd1 vccd1 vccd1 _271_/Q sky130_fd_sc_hd__dfrtp_1
XFILLER_5_113 vssd1 vccd1 vccd1 vssd1 sky130_ef_sc_hd__decap_12
XFILLER_4_83 vssd1 vssd1 vccd1 vccd1 sky130_fd_sc_hd__fill_1
X_185_ _297_/Q _177_/B _177_/C vssd1 vssd1 vccd1 vccd1 _186_/B sky130_fd_sc_hd__a21o_1
XFILLER_3_7 vssd1 vssd1 vccd1 vccd1 sky130_fd_sc_hd__decap_4
X_254_ _256_/A _256_/B vssd1 vssd1 vccd1 vccd1 _254_/Y sky130_fd_sc_hd__nand2_1
X_306_ _306_/A vssd1 vssd1 vccd1 vccd1 io_out[7] sky130_fd_sc_hd__buf_2
X_237_ _237_/A vssd1 vssd1 vccd1 vccd1 _292_/D sky130_fd_sc_hd__clkbuf_1
X_168_ _231_/A _168_/B vssd1 vssd1 vccd1 vccd1 _168_/Y sky130_fd_sc_hd__nor2_1
XFILLER_37_167 vssd1 vssd1 vccd1 vccd1 sky130_fd_sc_hd__fill_1
XFILLER_29_69 vssd1 vccd1 vccd1 vssd1 sky130_ef_sc_hd__decap_12
XFILLER_19_167 vssd1 vssd1 vccd1 vccd1 sky130_fd_sc_hd__fill_1
XFILLER_19_123 vssd1 vccd1 vccd1 vssd1 sky130_ef_sc_hd__decap_12
XFILLER_10_71 vssd1 vssd1 vccd1 vccd1 sky130_fd_sc_hd__decap_4
XFILLER_25_137 vssd1 vccd1 vccd1 vssd1 sky130_ef_sc_hd__decap_12
XFILLER_25_104 vssd1 vssd1 vccd1 vccd1 sky130_fd_sc_hd__decap_8
XFILLER_15_49 vssd1 vssd1 vccd1 vccd1 sky130_fd_sc_hd__decap_6
XFILLER_31_26 vssd1 vccd1 vccd1 vssd1 sky130_ef_sc_hd__decap_12
XFILLER_21_92 vssd1 vssd1 vccd1 vccd1 sky130_fd_sc_hd__decap_4
XTAP_129 vssd1 vccd1 sky130_fd_sc_hd__tapvpwrvgnd_1
XPHY_1 vssd1 vssd1 vccd1 vccd1 sky130_fd_sc_hd__decap_3
XTAP_107 vssd1 vccd1 sky130_fd_sc_hd__tapvpwrvgnd_1
XTAP_118 vssd1 vccd1 sky130_fd_sc_hd__tapvpwrvgnd_1
XFILLER_8_133 vssd1 vssd1 vccd1 vccd1 sky130_fd_sc_hd__decap_6
XFILLER_37_69 vssd1 vccd1 vccd1 vssd1 sky130_ef_sc_hd__decap_12
X_270_ _168_/Y _270_/D _257_/Y vssd1 vssd1 vccd1 vccd1 _271_/D sky130_fd_sc_hd__dfrtp_1
XFILLER_5_125 vssd1 vccd1 vccd1 vssd1 sky130_ef_sc_hd__decap_12
XFILLER_4_51 vssd1 vccd1 vccd1 vssd1 sky130_ef_sc_hd__decap_12
XFILLER_2_139 vssd1 vssd1 vccd1 vccd1 sky130_fd_sc_hd__fill_1
XFILLER_1_161 vssd1 vssd1 vccd1 vccd1 sky130_fd_sc_hd__decap_6
X_184_ _184_/A _184_/B vssd1 vssd1 vccd1 vccd1 _184_/Y sky130_fd_sc_hd__nand2_1
X_253_ _256_/A _256_/B vssd1 vssd1 vccd1 vccd1 _253_/Y sky130_fd_sc_hd__nand2_1
XFILLER_34_15 vssd1 vccd1 vccd1 vssd1 sky130_ef_sc_hd__decap_12
X_305_ _305_/A vssd1 vssd1 vccd1 vccd1 io_out[6] sky130_fd_sc_hd__buf_2
X_167_ _167_/A vssd1 vssd1 vccd1 vccd1 _306_/A sky130_fd_sc_hd__clkbuf_1
XFILLER_24_70 vssd1 vssd1 vccd1 vccd1 sky130_fd_sc_hd__decap_4
X_236_ _204_/B _261_/D _272_/Q vssd1 vssd1 vccd1 vccd1 _237_/A sky130_fd_sc_hd__mux2_1
XFILLER_37_113 vssd1 vccd1 vccd1 vssd1 sky130_ef_sc_hd__decap_12
XFILLER_10_50 vssd1 vssd1 vccd1 vccd1 sky130_fd_sc_hd__decap_4
XFILLER_10_61 vssd1 vssd1 vccd1 vccd1 sky130_fd_sc_hd__decap_4
XFILLER_19_135 vssd1 vccd1 vccd1 vssd1 sky130_ef_sc_hd__decap_12
X_219_ _215_/X _218_/Y _195_/A vssd1 vssd1 vccd1 vccd1 _219_/X sky130_fd_sc_hd__o21a_1
XFILLER_31_38 vssd1 vccd1 vccd1 vssd1 sky130_ef_sc_hd__decap_12
XFILLER_25_149 vssd1 vccd1 vccd1 vssd1 sky130_ef_sc_hd__decap_12
XFILLER_16_127 vssd1 vssd1 vccd1 vccd1 sky130_fd_sc_hd__decap_4
XFILLER_22_108 vssd1 vccd1 vccd1 vssd1 sky130_ef_sc_hd__decap_12
XTAP_119 vssd1 vccd1 sky130_fd_sc_hd__tapvpwrvgnd_1
XPHY_2 vssd1 vssd1 vccd1 vccd1 sky130_fd_sc_hd__decap_3
XTAP_108 vssd1 vccd1 sky130_fd_sc_hd__tapvpwrvgnd_1
XFILLER_30_141 vssd1 vccd1 vccd1 vssd1 sky130_ef_sc_hd__decap_12
XFILLER_26_27 vssd1 vssd1 vccd1 vccd1 sky130_fd_sc_hd__fill_1
XFILLER_13_108 vssd1 vssd1 vccd1 vccd1 sky130_fd_sc_hd__decap_4
XFILLER_12_141 vssd1 vccd1 vccd1 vssd1 sky130_ef_sc_hd__decap_12
XFILLER_37_15 vssd1 vccd1 vccd1 vssd1 sky130_ef_sc_hd__decap_12
XFILLER_5_137 vssd1 vccd1 vccd1 vssd1 sky130_ef_sc_hd__decap_12
XFILLER_27_81 vssd1 vccd1 vccd1 vssd1 sky130_ef_sc_hd__decap_12
XFILLER_4_63 vssd1 vccd1 vccd1 vssd1 sky130_ef_sc_hd__decap_12
XFILLER_4_85 vssd1 vccd1 vccd1 vssd1 sky130_ef_sc_hd__decap_12
X_183_ _173_/A _294_/Q _183_/S vssd1 vssd1 vccd1 vccd1 _184_/B sky130_fd_sc_hd__mux2_1
X_252_ _256_/A _256_/B vssd1 vssd1 vccd1 vccd1 _252_/Y sky130_fd_sc_hd__nand2_1
XFILLER_9_19 vssd1 vssd1 vccd1 vccd1 sky130_fd_sc_hd__decap_4
XFILLER_34_27 vssd1 vssd1 vccd1 vccd1 sky130_fd_sc_hd__fill_1
X_304_ _304_/A vssd1 vssd1 vccd1 vccd1 io_out[5] sky130_fd_sc_hd__buf_2
X_235_ _235_/A vssd1 vssd1 vccd1 vccd1 _291_/D sky130_fd_sc_hd__clkbuf_1
XFILLER_1_6 vssd1 vssd1 vccd1 vccd1 sky130_fd_sc_hd__decap_4
XFILLER_37_125 vssd1 vccd1 vccd1 vssd1 sky130_ef_sc_hd__decap_12
X_166_ _272_/Q _165_/X _268_/D vssd1 vssd1 vccd1 vccd1 _167_/A sky130_fd_sc_hd__mux2_1
XFILLER_29_16 vssd1 vssd1 vccd1 vccd1 sky130_fd_sc_hd__decap_4
XFILLER_35_81 vssd1 vccd1 vccd1 vssd1 sky130_ef_sc_hd__decap_12
XFILLER_34_139 vssd1 vssd1 vccd1 vccd1 sky130_fd_sc_hd__fill_1
XFILLER_19_147 vssd1 vccd1 vccd1 vssd1 sky130_ef_sc_hd__decap_12
X_149_ _296_/Q vssd1 vssd1 vccd1 vccd1 _209_/B sky130_fd_sc_hd__clkbuf_1
X_218_ _218_/A _218_/B vssd1 vssd1 vccd1 vccd1 _218_/Y sky130_fd_sc_hd__nor2_1
XFILLER_10_95 vssd1 vccd1 vccd1 vssd1 sky130_ef_sc_hd__decap_12
XFILLER_33_161 vssd1 vssd1 vccd1 vccd1 sky130_fd_sc_hd__decap_6
XFILLER_21_83 vssd1 vssd1 vccd1 vccd1 sky130_fd_sc_hd__decap_4
XFILLER_16_117 vssd1 vssd1 vccd1 vccd1 sky130_fd_sc_hd__decap_4
XFILLER_16_106 vssd1 vssd1 vccd1 vccd1 sky130_fd_sc_hd__decap_4
XTAP_109 vssd1 vccd1 sky130_fd_sc_hd__tapvpwrvgnd_1
XFILLER_30_153 vssd1 vccd1 vccd1 vssd1 sky130_ef_sc_hd__decap_12
XFILLER_26_39 vssd1 vssd1 vccd1 vccd1 sky130_fd_sc_hd__decap_4
XPHY_3 vssd1 vssd1 vccd1 vccd1 sky130_fd_sc_hd__decap_3
XFILLER_16_94 vssd1 vssd1 vccd1 vccd1 sky130_fd_sc_hd__decap_4
XFILLER_12_131 vssd1 vssd1 vccd1 vccd1 sky130_fd_sc_hd__decap_8
XFILLER_12_153 vssd1 vccd1 vccd1 vssd1 sky130_ef_sc_hd__decap_12
XFILLER_37_27 vssd1 vccd1 vccd1 vssd1 sky130_ef_sc_hd__decap_12
XFILLER_5_105 vssd1 vssd1 vccd1 vccd1 sky130_fd_sc_hd__decap_6
XFILLER_5_149 vssd1 vccd1 vccd1 vssd1 sky130_ef_sc_hd__decap_12
XFILLER_27_93 vssd1 vccd1 vccd1 vssd1 sky130_ef_sc_hd__decap_12
XFILLER_4_75 vssd1 vssd1 vccd1 vccd1 sky130_fd_sc_hd__decap_8
XFILLER_4_97 vssd1 vccd1 vccd1 vssd1 sky130_ef_sc_hd__decap_12
X_251_ _259_/B vssd1 vssd1 vccd1 vccd1 _256_/B sky130_fd_sc_hd__dlymetal6s2s_1
X_182_ _262_/Q _263_/Q _261_/Q vssd1 vssd1 vccd1 vccd1 _183_/S sky130_fd_sc_hd__and3b_1
XFILLER_37_137 vssd1 vccd1 vccd1 vssd1 sky130_ef_sc_hd__decap_12
X_303_ _303_/A vssd1 vssd1 vccd1 vccd1 io_out[4] sky130_fd_sc_hd__buf_2
XFILLER_24_83 vssd1 vssd1 vccd1 vccd1 sky130_fd_sc_hd__fill_1
X_165_ _278_/Q _286_/Q _165_/S vssd1 vssd1 vccd1 vccd1 _165_/X sky130_fd_sc_hd__mux2_1
X_234_ _209_/B _262_/D _272_/Q vssd1 vssd1 vccd1 vccd1 _235_/A sky130_fd_sc_hd__mux2_1
XFILLER_35_93 vssd1 vccd1 vccd1 vssd1 sky130_ef_sc_hd__decap_12
X_148_ _148_/A vssd1 vssd1 vccd1 vccd1 _300_/A sky130_fd_sc_hd__clkbuf_1
XFILLER_19_159 vssd1 vssd1 vccd1 vccd1 sky130_fd_sc_hd__decap_8
X_217_ _172_/A _197_/X _216_/X vssd1 vssd1 vccd1 vccd1 _218_/B sky130_fd_sc_hd__a21oi_1
XFILLER_25_3 vssd1 vssd1 vccd1 vccd1 sky130_fd_sc_hd__decap_4
XFILLER_21_73 vssd1 vssd1 vccd1 vccd1 sky130_fd_sc_hd__decap_4
XFILLER_21_51 vssd1 vssd1 vccd1 vccd1 sky130_fd_sc_hd__decap_4
XFILLER_30_165 vssd1 vssd1 vccd1 vccd1 sky130_fd_sc_hd__decap_3
XFILLER_30_121 vssd1 vccd1 vccd1 vssd1 sky130_ef_sc_hd__decap_12
XPHY_4 vssd1 vssd1 vccd1 vccd1 sky130_fd_sc_hd__decap_3
XFILLER_32_83 vssd1 vssd1 vccd1 vccd1 sky130_fd_sc_hd__fill_1
XFILLER_12_165 vssd1 vssd1 vccd1 vccd1 sky130_fd_sc_hd__decap_3
XFILLER_37_39 vssd1 vccd1 vccd1 vssd1 sky130_ef_sc_hd__decap_12
XFILLER_2_109 vssd1 vccd1 vccd1 vssd1 sky130_ef_sc_hd__decap_12
XFILLER_4_32 vssd1 vssd1 vccd1 vccd1 sky130_fd_sc_hd__decap_4
X_250_ _259_/A vssd1 vssd1 vccd1 vccd1 _256_/A sky130_fd_sc_hd__dlymetal6s2s_1
X_181_ _181_/A _181_/B vssd1 vssd1 vccd1 vccd1 _184_/A sky130_fd_sc_hd__xor2_1
XFILLER_34_29 vssd1 vccd1 vccd1 vssd1 sky130_ef_sc_hd__decap_12
XFILLER_37_149 vssd1 vccd1 vccd1 vssd1 sky130_ef_sc_hd__decap_12
XFILLER_37_105 vssd1 vssd1 vccd1 vccd1 sky130_fd_sc_hd__decap_6
X_302_ _302_/A vssd1 vssd1 vccd1 vccd1 io_out[3] sky130_fd_sc_hd__buf_2
X_233_ _233_/A vssd1 vssd1 vccd1 vccd1 _290_/D sky130_fd_sc_hd__clkbuf_1
X_164_ _268_/D _287_/Q _143_/X _163_/X vssd1 vssd1 vccd1 vccd1 _305_/A sky130_fd_sc_hd__a31o_1
XFILLER_1_55 vssd1 vssd1 vccd1 vccd1 sky130_fd_sc_hd__fill_1
XFILLER_19_116 vssd1 vssd1 vccd1 vccd1 sky130_fd_sc_hd__decap_4
XFILLER_19_73 vssd1 vssd1 vccd1 vccd1 sky130_fd_sc_hd__decap_4
X_216_ _215_/B _172_/A _263_/D vssd1 vssd1 vccd1 vccd1 _216_/X sky130_fd_sc_hd__o21a_1
X_147_ _284_/Q _276_/Q _292_/Q _204_/B _136_/X _143_/X vssd1 vssd1 vccd1 vccd1 _148_/A
+ sky130_fd_sc_hd__mux4_1
XFILLER_24_141 vssd1 vccd1 vccd1 vssd1 sky130_ef_sc_hd__decap_12
XFILLER_30_133 vssd1 vssd1 vccd1 vccd1 sky130_fd_sc_hd__decap_6
XPHY_5 vssd1 vssd1 vccd1 vccd1 sky130_fd_sc_hd__decap_3
X_180_ _181_/A _181_/B vssd1 vssd1 vccd1 vccd1 _180_/Y sky130_fd_sc_hd__nand2_1
XFILLER_38_83 vssd1 vssd1 vccd1 vccd1 sky130_fd_sc_hd__fill_1
X_301_ _301_/A vssd1 vssd1 vccd1 vccd1 io_out[2] sky130_fd_sc_hd__buf_2
XFILLER_24_85 vssd1 vccd1 vccd1 vssd1 sky130_ef_sc_hd__decap_12
X_163_ _136_/X _279_/Q _143_/X vssd1 vssd1 vccd1 vccd1 _163_/X sky130_fd_sc_hd__o21ba_1
X_232_ _172_/A _263_/D _272_/Q vssd1 vssd1 vccd1 vccd1 _233_/A sky130_fd_sc_hd__mux2_1
XFILLER_28_139 vssd1 vssd1 vccd1 vccd1 sky130_fd_sc_hd__fill_1
XFILLER_34_109 vssd1 vccd1 vccd1 vssd1 sky130_ef_sc_hd__decap_12
XFILLER_27_161 vssd1 vssd1 vccd1 vccd1 sky130_fd_sc_hd__decap_6
XFILLER_19_96 vssd1 vssd1 vccd1 vccd1 sky130_fd_sc_hd__decap_4
XFILLER_19_106 vssd1 vssd1 vccd1 vccd1 sky130_fd_sc_hd__decap_6
XFILLER_19_85 vssd1 vssd1 vccd1 vccd1 sky130_fd_sc_hd__decap_4
X_146_ _297_/Q vssd1 vssd1 vccd1 vccd1 _204_/B sky130_fd_sc_hd__clkbuf_1
X_215_ _218_/A _215_/B _215_/C vssd1 vssd1 vccd1 vccd1 _215_/X sky130_fd_sc_hd__and3_1
XFILLER_24_153 vssd1 vccd1 vccd1 vssd1 sky130_ef_sc_hd__decap_12
XFILLER_21_31 vssd1 vssd1 vccd1 vccd1 sky130_fd_sc_hd__decap_4
XPHY_6 vssd1 vssd1 vccd1 vccd1 sky130_fd_sc_hd__decap_3
XFILLER_21_167 vssd1 vssd1 vccd1 vccd1 sky130_fd_sc_hd__fill_1
X_129_ _140_/B vssd1 vssd1 vccd1 vccd1 _209_/A sky130_fd_sc_hd__clkbuf_1
XFILLER_32_85 vssd1 vccd1 vccd1 vssd1 sky130_ef_sc_hd__decap_12
XFILLER_32_41 vssd1 vccd1 vccd1 vssd1 sky130_ef_sc_hd__decap_12
XFILLER_12_112 vssd1 vssd1 vccd1 vccd1 sky130_fd_sc_hd__decap_4
XFILLER_27_52 vssd1 vssd1 vccd1 vccd1 sky130_fd_sc_hd__decap_4
XFILLER_4_23 vssd1 vssd1 vccd1 vccd1 sky130_fd_sc_hd__decap_4
XFILLER_4_141 vssd1 vccd1 vccd1 vssd1 sky130_ef_sc_hd__decap_12
XFILLER_1_111 vssd1 vssd1 vccd1 vccd1 sky130_fd_sc_hd__fill_1
XFILLER_8_3 vssd1 vssd1 vccd1 vccd1 sky130_fd_sc_hd__decap_4
X_300_ _300_/A vssd1 vssd1 vccd1 vccd1 io_out[1] sky130_fd_sc_hd__buf_2
X_162_ _268_/D _160_/X _161_/X vssd1 vssd1 vccd1 vccd1 _304_/A sky130_fd_sc_hd__a21bo_1
XFILLER_24_97 vssd1 vccd1 vccd1 vssd1 sky130_ef_sc_hd__decap_12
X_231_ _231_/A _231_/B _231_/C vssd1 vssd1 vccd1 vccd1 _231_/Y sky130_fd_sc_hd__nor3_1
XFILLER_1_57 vssd1 vccd1 vccd1 vssd1 sky130_ef_sc_hd__decap_12
XFILLER_1_13 vssd1 vccd1 vccd1 vssd1 sky130_ef_sc_hd__decap_12
XTAP_90 vssd1 vccd1 sky130_fd_sc_hd__tapvpwrvgnd_1
Xinput1 io_in[0] vssd1 vssd1 vccd1 vccd1 input1/X sky130_fd_sc_hd__clkbuf_1
XFILLER_10_88 vssd1 vssd1 vccd1 vccd1 sky130_fd_sc_hd__decap_4
XFILLER_32_7 vssd1 vssd1 vccd1 vccd1 sky130_fd_sc_hd__decap_4
X_214_ _215_/C _214_/B _214_/C vssd1 vssd1 vccd1 vccd1 _214_/Y sky130_fd_sc_hd__nand3b_1
X_145_ _145_/A vssd1 vssd1 vccd1 vccd1 _299_/A sky130_fd_sc_hd__clkbuf_1
XFILLER_24_121 vssd1 vccd1 vccd1 vssd1 sky130_ef_sc_hd__decap_12
XFILLER_24_165 vssd1 vssd1 vccd1 vccd1 sky130_fd_sc_hd__decap_3
XFILLER_15_165 vssd1 vssd1 vccd1 vccd1 sky130_fd_sc_hd__decap_3
XPHY_7 vssd1 vssd1 vccd1 vccd1 sky130_fd_sc_hd__decap_3
XFILLER_23_3 vssd1 vssd1 vccd1 vccd1 sky130_fd_sc_hd__decap_4